<?xml version="1.0" encoding="UTF-8"?>
<!-- generated on 2020-09-08 21:25:02.998623 by osmWebWizard.py v1_6_0+0003-190709904e
  options: 
-->
<routes xmlns:xsi="http://www.w3.org/2001/XMLSchema-instance" xsi:noNamespaceSchemaLocation="http://sumo.dlr.de/xsd/routes_file.xsd">
    <vType id="ped_pedestrian" vClass="pedestrian"/>
    <person id="ped0" depart="0.00" type="ped_pedestrian">
        <personTrip from="385402827#0" to="-154381210#2" modes="public"/>
    </person>
    <person id="ped1" depart="0.90" type="ped_pedestrian">
        <personTrip from="-659365919" to="-488238911#0" modes="public"/>
    </person>
    <person id="ped2" depart="1.81" type="ped_pedestrian">
        <personTrip from="468150232" to="407759965" modes="public"/>
    </person>
    <person id="ped3" depart="2.71" type="ped_pedestrian">
        <personTrip from="619761079#1" to="-22742033#4" modes="public"/>
    </person>
    <person id="ped4" depart="3.61" type="ped_pedestrian">
        <personTrip from="190795303#2" to="-154947623" modes="public"/>
    </person>
    <person id="ped5" depart="4.52" type="ped_pedestrian">
        <personTrip from="-475674921#0" to="25762471#22" modes="public"/>
    </person>
    <person id="ped6" depart="5.42" type="ped_pedestrian">
        <personTrip from="-154381215#3" to="-4688812#1" modes="public"/>
    </person>
    <person id="ped7" depart="6.32" type="ped_pedestrian">
        <personTrip from="389457787#4" to="30136228#1" modes="public"/>
    </person>
    <person id="ped8" depart="7.23" type="ped_pedestrian">
        <personTrip from="-477496811#2" to="345271481#1" modes="public"/>
    </person>
    <person id="ped9" depart="8.13" type="ped_pedestrian">
        <personTrip from="52028088#2" to="-120311789#2" modes="public"/>
    </person>
    <person id="ped10" depart="9.03" type="ped_pedestrian">
        <personTrip from="518019156#0" to="430955135" modes="public"/>
    </person>
    <person id="ped11" depart="9.94" type="ped_pedestrian">
        <personTrip from="128754668" to="-380267134#1" modes="public"/>
    </person>
    <person id="ped12" depart="10.84" type="ped_pedestrian">
        <personTrip from="74207613#0" to="127538487#1" modes="public"/>
    </person>
    <person id="ped13" depart="11.74" type="ped_pedestrian">
        <personTrip from="-238749891" to="-24245812#0" modes="public"/>
    </person>
    <person id="ped14" depart="12.65" type="ped_pedestrian">
        <personTrip from="58177940#0" to="360153809#1" modes="public"/>
    </person>
    <person id="ped15" depart="13.55" type="ped_pedestrian">
        <personTrip from="51824177#0" to="45689071" modes="public"/>
    </person>
    <person id="ped16" depart="14.45" type="ped_pedestrian">
        <personTrip from="286601114" to="78629897#3" modes="public"/>
    </person>
    <person id="ped17" depart="15.36" type="ped_pedestrian">
        <personTrip from="156530446#2" to="310172804#1" modes="public"/>
    </person>
    <person id="ped18" depart="16.26" type="ped_pedestrian">
        <personTrip from="553086557#1" to="373666857" modes="public"/>
    </person>
    <person id="ped19" depart="17.16" type="ped_pedestrian">
        <personTrip from="596058385" to="32838988#2" modes="public"/>
    </person>
    <person id="ped20" depart="18.07" type="ped_pedestrian">
        <personTrip from="430955169" to="-175574679#5" modes="public"/>
    </person>
    <person id="ped21" depart="18.97" type="ped_pedestrian">
        <personTrip from="-50062452#0" to="-77501859" modes="public"/>
    </person>
    <person id="ped22" depart="19.87" type="ped_pedestrian">
        <personTrip from="-216981476#0" to="-518874770#1" modes="public"/>
    </person>
    <person id="ped23" depart="20.78" type="ped_pedestrian">
        <personTrip from="-25376552#3" to="-679059656" modes="public"/>
    </person>
    <person id="ped24" depart="21.68" type="ped_pedestrian">
        <personTrip from="383634464" to="154381215#1" modes="public"/>
    </person>
    <person id="ped25" depart="22.58" type="ped_pedestrian">
        <personTrip from="154381284#0" to="-4689086#0" modes="public"/>
    </person>
    <person id="ped26" depart="23.49" type="ped_pedestrian">
        <personTrip from="-62170956#1" to="687842886#1" modes="public"/>
    </person>
    <person id="ped27" depart="24.39" type="ped_pedestrian">
        <personTrip from="385954150" to="367868427#1" modes="public"/>
    </person>
    <person id="ped28" depart="25.29" type="ped_pedestrian">
        <personTrip from="-416763199#0" to="45668574#1" modes="public"/>
    </person>
    <person id="ped29" depart="26.20" type="ped_pedestrian">
        <personTrip from="-395808400#0" to="157597999#2" modes="public"/>
    </person>
    <person id="ped30" depart="27.10" type="ped_pedestrian">
        <personTrip from="824274178#1" to="385402828#1" modes="public"/>
    </person>
    <person id="ped31" depart="28.00" type="ped_pedestrian">
        <personTrip from="316735234#5" to="41556694#1" modes="public"/>
    </person>
    <person id="ped32" depart="28.91" type="ped_pedestrian">
        <personTrip from="565909526" to="473812026" modes="public"/>
    </person>
    <person id="ped33" depart="29.81" type="ped_pedestrian">
        <personTrip from="-510236968" to="-155605333#2" modes="public"/>
    </person>
    <person id="ped34" depart="30.71" type="ped_pedestrian">
        <personTrip from="106886288#0" to="-6229430#1" modes="public"/>
    </person>
    <person id="ped35" depart="31.62" type="ped_pedestrian">
        <personTrip from="-4689087#5" to="69724420#1" modes="public"/>
    </person>
    <person id="ped36" depart="32.52" type="ped_pedestrian">
        <personTrip from="60769279" to="106277831#2" modes="public"/>
    </person>
    <person id="ped37" depart="33.42" type="ped_pedestrian">
        <personTrip from="391759634" to="175573818#1" modes="public"/>
    </person>
    <person id="ped38" depart="34.33" type="ped_pedestrian">
        <personTrip from="645960421" to="223307730#1" modes="public"/>
    </person>
    <person id="ped39" depart="35.23" type="ped_pedestrian">
        <personTrip from="-611138195" to="-594048997#2" modes="public"/>
    </person>
    <person id="ped40" depart="36.13" type="ped_pedestrian">
        <personTrip from="31739134" to="-610271623#1" modes="public"/>
    </person>
    <person id="ped41" depart="37.04" type="ped_pedestrian">
        <personTrip from="33561458#2" to="625733469#0" modes="public"/>
    </person>
    <person id="ped42" depart="37.94" type="ped_pedestrian">
        <personTrip from="175574451#1" to="-476011435" modes="public"/>
    </person>
    <person id="ped43" depart="38.84" type="ped_pedestrian">
        <personTrip from="86813083#4" to="25797732#3" modes="public"/>
    </person>
    <person id="ped44" depart="39.75" type="ped_pedestrian">
        <personTrip from="-237460095" to="-175744669#7" modes="public"/>
    </person>
    <person id="ped45" depart="40.65" type="ped_pedestrian">
        <personTrip from="-25762471#3" to="380092037#2" modes="public"/>
    </person>
    <person id="ped46" depart="41.55" type="ped_pedestrian">
        <personTrip from="491948905" to="190795303#4" modes="public"/>
    </person>
    <person id="ped47" depart="42.46" type="ped_pedestrian">
        <personTrip from="-194071688#8" to="165397464" modes="public"/>
    </person>
    <person id="ped48" depart="43.36" type="ped_pedestrian">
        <personTrip from="85698467" to="28191102" modes="public"/>
    </person>
    <person id="ped49" depart="44.26" type="ped_pedestrian">
        <personTrip from="78629886#0" to="595906891" modes="public"/>
    </person>
    <person id="ped50" depart="45.17" type="ped_pedestrian">
        <personTrip from="-127538497#2" to="443269783#0" modes="public"/>
    </person>
    <person id="ped51" depart="46.07" type="ped_pedestrian">
        <personTrip from="41280441" to="287903610#0" modes="public"/>
    </person>
    <person id="ped52" depart="46.97" type="ped_pedestrian">
        <personTrip from="-62170956#0" to="385415388" modes="public"/>
    </person>
    <person id="ped53" depart="47.88" type="ped_pedestrian">
        <personTrip from="-25797462#0" to="198941784#0" modes="public"/>
    </person>
    <person id="ped54" depart="48.78" type="ped_pedestrian">
        <personTrip from="223184052#3" to="719379669" modes="public"/>
    </person>
    <person id="ped55" depart="49.68" type="ped_pedestrian">
        <personTrip from="60769278#3" to="-610512291#0" modes="public"/>
    </person>
    <person id="ped56" depart="50.59" type="ped_pedestrian">
        <personTrip from="25585952#3" to="-438362813" modes="public"/>
    </person>
    <person id="ped57" depart="51.49" type="ped_pedestrian">
        <personTrip from="642851289" to="599927583#15" modes="public"/>
    </person>
    <person id="ped58" depart="52.39" type="ped_pedestrian">
        <personTrip from="-822185905#1" to="385402821" modes="public"/>
    </person>
    <person id="ped59" depart="53.30" type="ped_pedestrian">
        <personTrip from="367856441" to="-37226923#1" modes="public"/>
    </person>
    <person id="ped60" depart="54.20" type="ped_pedestrian">
        <personTrip from="4689054#9" to="291310001#0" modes="public"/>
    </person>
    <person id="ped61" depart="55.10" type="ped_pedestrian">
        <personTrip from="474217429#1" to="28191335#1" modes="public"/>
    </person>
    <person id="ped62" depart="56.01" type="ped_pedestrian">
        <personTrip from="-106277650#3" to="119183574" modes="public"/>
    </person>
    <person id="ped63" depart="56.91" type="ped_pedestrian">
        <personTrip from="-142387160" to="663592930#0" modes="public"/>
    </person>
    <person id="ped64" depart="57.81" type="ped_pedestrian">
        <personTrip from="60815654#1" to="55596239#4" modes="public"/>
    </person>
    <person id="ped65" depart="58.72" type="ped_pedestrian">
        <personTrip from="100774712#0" to="-187399685#1" modes="public"/>
    </person>
    <person id="ped66" depart="59.62" type="ped_pedestrian">
        <personTrip from="60769292" to="705942392" modes="public"/>
    </person>
    <person id="ped67" depart="60.52" type="ped_pedestrian">
        <personTrip from="-223307728#6" to="24245785#0" modes="public"/>
    </person>
    <person id="ped68" depart="61.43" type="ped_pedestrian">
        <personTrip from="-198585459#16" to="4689054#1" modes="public"/>
    </person>
    <person id="ped69" depart="62.33" type="ped_pedestrian">
        <personTrip from="4689086#1" to="-30498173#0" modes="public"/>
    </person>
    <person id="ped70" depart="63.24" type="ped_pedestrian">
        <personTrip from="237483989#2" to="30691726#1" modes="public"/>
    </person>
    <person id="ped71" depart="64.14" type="ped_pedestrian">
        <personTrip from="-616773872#0" to="600410889#2" modes="public"/>
    </person>
    <person id="ped72" depart="65.04" type="ped_pedestrian">
        <personTrip from="194070667#1" to="-4689089#11" modes="public"/>
    </person>
    <person id="ped73" depart="65.95" type="ped_pedestrian">
        <personTrip from="291310001#0" to="45818046" modes="public"/>
    </person>
    <person id="ped74" depart="66.85" type="ped_pedestrian">
        <personTrip from="-4689028#0" to="10124982#4" modes="public"/>
    </person>
    <person id="ped75" depart="67.75" type="ped_pedestrian">
        <personTrip from="85642893#2" to="389457787#4" modes="public"/>
    </person>
    <person id="ped76" depart="68.66" type="ped_pedestrian">
        <personTrip from="199578957" to="26634782#2" modes="public"/>
    </person>
    <person id="ped77" depart="69.56" type="ped_pedestrian">
        <personTrip from="-279652276" to="-489869811#3" modes="public"/>
    </person>
    <person id="ped78" depart="70.46" type="ped_pedestrian">
        <personTrip from="127538492#0" to="34425299#3" modes="public"/>
    </person>
    <person id="ped79" depart="71.37" type="ped_pedestrian">
        <personTrip from="-510236971#3" to="-477496811#1" modes="public"/>
    </person>
    <person id="ped80" depart="72.27" type="ped_pedestrian">
        <personTrip from="-198585468#0" to="381504057" modes="public"/>
    </person>
    <person id="ped81" depart="73.17" type="ped_pedestrian">
        <personTrip from="-506581476#1" to="626979660#1" modes="public"/>
    </person>
    <person id="ped82" depart="74.08" type="ped_pedestrian">
        <personTrip from="595906859" to="-198585464" modes="public"/>
    </person>
    <person id="ped83" depart="74.98" type="ped_pedestrian">
        <personTrip from="-55596239#1" to="395309594#0" modes="public"/>
    </person>
    <person id="ped84" depart="75.88" type="ped_pedestrian">
        <personTrip from="-4689095#1" to="-318323325#0" modes="public"/>
    </person>
    <person id="ped85" depart="76.79" type="ped_pedestrian">
        <personTrip from="67921097#2" to="32388552" modes="public"/>
    </person>
    <person id="ped86" depart="77.69" type="ped_pedestrian">
        <personTrip from="236544367#1" to="478250927#1" modes="public"/>
    </person>
    <person id="ped87" depart="78.59" type="ped_pedestrian">
        <personTrip from="518729376" to="-4685874#0" modes="public"/>
    </person>
    <person id="ped88" depart="79.50" type="ped_pedestrian">
        <personTrip from="-24245812#2" to="198585459#4" modes="public"/>
    </person>
    <person id="ped89" depart="80.40" type="ped_pedestrian">
        <personTrip from="194071689#0" to="23248778#5" modes="public"/>
    </person>
    <person id="ped90" depart="81.30" type="ped_pedestrian">
        <personTrip from="45668574#1" to="40589979#2" modes="public"/>
    </person>
    <person id="ped91" depart="82.21" type="ped_pedestrian">
        <personTrip from="822191861" to="-25214249#0" modes="public"/>
    </person>
    <person id="ped92" depart="83.11" type="ped_pedestrian">
        <personTrip from="176050266#0" to="127538497#4" modes="public"/>
    </person>
    <person id="ped93" depart="84.01" type="ped_pedestrian">
        <personTrip from="596058385" to="-596066322#1" modes="public"/>
    </person>
    <person id="ped94" depart="84.92" type="ped_pedestrian">
        <personTrip from="-4685872#1" to="218946554#0" modes="public"/>
    </person>
    <person id="ped95" depart="85.82" type="ped_pedestrian">
        <personTrip from="190795303#2" to="-694352540" modes="public"/>
    </person>
    <person id="ped96" depart="86.72" type="ped_pedestrian">
        <personTrip from="-596072109#7" to="653511237" modes="public"/>
    </person>
    <person id="ped97" depart="87.63" type="ped_pedestrian">
        <personTrip from="205988379" to="596051200" modes="public"/>
    </person>
    <person id="ped98" depart="88.53" type="ped_pedestrian">
        <personTrip from="30890340#1" to="-179463341#0" modes="public"/>
    </person>
    <person id="ped99" depart="89.43" type="ped_pedestrian">
        <personTrip from="97133107#4" to="558209460" modes="public"/>
    </person>
    <person id="ped100" depart="90.34" type="ped_pedestrian">
        <personTrip from="77501863#2" to="659365918" modes="public"/>
    </person>
    <person id="ped101" depart="91.24" type="ped_pedestrian">
        <personTrip from="58182826#1" to="-410953173#0" modes="public"/>
    </person>
    <person id="ped102" depart="92.14" type="ped_pedestrian">
        <personTrip from="24245766" to="-4689093#1" modes="public"/>
    </person>
    <person id="ped103" depart="93.05" type="ped_pedestrian">
        <personTrip from="175744669#1" to="-187399686#3" modes="public"/>
    </person>
    <person id="ped104" depart="93.95" type="ped_pedestrian">
        <personTrip from="156530451" to="822839636" modes="public"/>
    </person>
    <person id="ped105" depart="94.85" type="ped_pedestrian">
        <personTrip from="-616773873" to="4782405#2" modes="public"/>
    </person>
    <person id="ped106" depart="95.76" type="ped_pedestrian">
        <personTrip from="223188530#0" to="194070667#0" modes="public"/>
    </person>
    <person id="ped107" depart="96.66" type="ped_pedestrian">
        <personTrip from="74207613#1" to="85643129#1" modes="public"/>
    </person>
    <person id="ped108" depart="97.56" type="ped_pedestrian">
        <personTrip from="31302304" to="441039308" modes="public"/>
    </person>
    <person id="ped109" depart="98.47" type="ped_pedestrian">
        <personTrip from="-37633352#1" to="-818875883#1" modes="public"/>
    </person>
    <person id="ped110" depart="99.37" type="ped_pedestrian">
        <personTrip from="77501863#0" to="332758712#1" modes="public"/>
    </person>
    <person id="ped111" depart="100.27" type="ped_pedestrian">
        <personTrip from="297368031" to="4688627#1" modes="public"/>
    </person>
    <person id="ped112" depart="101.18" type="ped_pedestrian">
        <personTrip from="-184726169#3" to="33561458#0" modes="public"/>
    </person>
    <person id="ped113" depart="102.08" type="ped_pedestrian">
        <personTrip from="25762467#3" to="592470753#0" modes="public"/>
    </person>
    <person id="ped114" depart="102.98" type="ped_pedestrian">
        <personTrip from="-38207292#0" to="75009232#1" modes="public"/>
    </person>
    <person id="ped115" depart="103.89" type="ped_pedestrian">
        <personTrip from="-216981476#2" to="-46839071#1" modes="public"/>
    </person>
    <person id="ped116" depart="104.79" type="ped_pedestrian">
        <personTrip from="34883298#3" to="40707859" modes="public"/>
    </person>
    <person id="ped117" depart="105.69" type="ped_pedestrian">
        <personTrip from="-52636748#0" to="-27466577#6" modes="public"/>
    </person>
    <person id="ped118" depart="106.60" type="ped_pedestrian">
        <personTrip from="617823032#2" to="-593851923#6" modes="public"/>
    </person>
    <person id="ped119" depart="107.50" type="ped_pedestrian">
        <personTrip from="34883298#0" to="374737482#1" modes="public"/>
    </person>
    <person id="ped120" depart="108.40" type="ped_pedestrian">
        <personTrip from="188728011" to="335244082#1" modes="public"/>
    </person>
    <person id="ped121" depart="109.31" type="ped_pedestrian">
        <personTrip from="28072613#2" to="679059656" modes="public"/>
    </person>
    <person id="ped122" depart="110.21" type="ped_pedestrian">
        <personTrip from="-4689036#5" to="438362816" modes="public"/>
    </person>
    <person id="ped123" depart="111.11" type="ped_pedestrian">
        <personTrip from="-55596239#5" to="175573818#1" modes="public"/>
    </person>
    <person id="ped124" depart="112.02" type="ped_pedestrian">
        <personTrip from="397300561#1" to="-822867545" modes="public"/>
    </person>
    <person id="ped125" depart="112.92" type="ped_pedestrian">
        <personTrip from="108219124#1" to="4688807#0" modes="public"/>
    </person>
    <person id="ped126" depart="113.82" type="ped_pedestrian">
        <personTrip from="-198595363#1" to="223307728#7" modes="public"/>
    </person>
    <person id="ped127" depart="114.73" type="ped_pedestrian">
        <personTrip from="87286078" to="85698467" modes="public"/>
    </person>
    <person id="ped128" depart="115.63" type="ped_pedestrian">
        <personTrip from="-198597173#3" to="-4689089#8" modes="public"/>
    </person>
    <person id="ped129" depart="116.53" type="ped_pedestrian">
        <personTrip from="-616773873" to="671102779" modes="public"/>
    </person>
    <person id="ped130" depart="117.44" type="ped_pedestrian">
        <personTrip from="609943359#0" to="60815657#2" modes="public"/>
    </person>
    <person id="ped131" depart="118.34" type="ped_pedestrian">
        <personTrip from="154381260#0" to="-383557654#1" modes="public"/>
    </person>
    <person id="ped132" depart="119.24" type="ped_pedestrian">
        <personTrip from="556232488#0" to="430955163#0" modes="public"/>
    </person>
    <person id="ped133" depart="120.15" type="ped_pedestrian">
        <personTrip from="370609794#0" to="823493477" modes="public"/>
    </person>
    <person id="ped134" depart="121.05" type="ped_pedestrian">
        <personTrip from="391759625" to="-123019437#4" modes="public"/>
    </person>
    <person id="ped135" depart="121.95" type="ped_pedestrian">
        <personTrip from="523472816" to="-822839636" modes="public"/>
    </person>
    <person id="ped136" depart="122.86" type="ped_pedestrian">
        <personTrip from="394669709#0" to="694352538#1" modes="public"/>
    </person>
    <person id="ped137" depart="123.76" type="ped_pedestrian">
        <personTrip from="-32388492" to="-26492526#0" modes="public"/>
    </person>
    <person id="ped138" depart="124.66" type="ped_pedestrian">
        <personTrip from="-25762471#11" to="310172807#3" modes="public"/>
    </person>
    <person id="ped139" depart="125.57" type="ped_pedestrian">
        <personTrip from="-628786004#0" to="36097295" modes="public"/>
    </person>
    <person id="ped140" depart="126.47" type="ped_pedestrian">
        <personTrip from="439421755#0" to="-4689036#1" modes="public"/>
    </person>
    <person id="ped141" depart="127.37" type="ped_pedestrian">
        <personTrip from="383611881#1" to="-610846696" modes="public"/>
    </person>
    <person id="ped142" depart="128.28" type="ped_pedestrian">
        <personTrip from="244542851" to="626979660#0" modes="public"/>
    </person>
    <person id="ped143" depart="129.18" type="ped_pedestrian">
        <personTrip from="578582215#1" to="-237483993#2" modes="public"/>
    </person>
    <person id="ped144" depart="130.08" type="ped_pedestrian">
        <personTrip from="194071689#0" to="-665689273#3" modes="public"/>
    </person>
    <person id="ped145" depart="130.99" type="ped_pedestrian">
        <personTrip from="-11273359#1" to="4689265#1" modes="public"/>
    </person>
    <person id="ped146" depart="131.89" type="ped_pedestrian">
        <personTrip from="384136808#3" to="-610191137#0" modes="public"/>
    </person>
    <person id="ped147" depart="132.79" type="ped_pedestrian">
        <personTrip from="4685869#1" to="310172801#0" modes="public"/>
    </person>
    <person id="ped148" depart="133.70" type="ped_pedestrian">
        <personTrip from="197576012#1" to="-127538489#0" modes="public"/>
    </person>
    <person id="ped149" depart="134.60" type="ped_pedestrian">
        <personTrip from="-202112387" to="610510406#1" modes="public"/>
    </person>
    <person id="ped150" depart="135.50" type="ped_pedestrian">
        <personTrip from="625997621#1" to="30136228#5" modes="public"/>
    </person>
    <person id="ped151" depart="136.41" type="ped_pedestrian">
        <personTrip from="55680367" to="335239957" modes="public"/>
    </person>
    <person id="ped152" depart="137.31" type="ped_pedestrian">
        <personTrip from="-35559332#6" to="-302026198" modes="public"/>
    </person>
    <person id="ped153" depart="138.21" type="ped_pedestrian">
        <personTrip from="100774712#5" to="625733473" modes="public"/>
    </person>
    <person id="ped154" depart="139.12" type="ped_pedestrian">
        <personTrip from="497898321#1" to="595906891" modes="public"/>
    </person>
    <person id="ped155" depart="140.02" type="ped_pedestrian">
        <personTrip from="625733473" to="-4689087#0" modes="public"/>
    </person>
    <person id="ped156" depart="140.92" type="ped_pedestrian">
        <personTrip from="-596072109#5" to="-25463304#1" modes="public"/>
    </person>
    <person id="ped157" depart="141.83" type="ped_pedestrian">
        <personTrip from="474221740#1" to="610792083#0" modes="public"/>
    </person>
    <person id="ped158" depart="142.73" type="ped_pedestrian">
        <personTrip from="179005471#0" to="37633352#0" modes="public"/>
    </person>
    <person id="ped159" depart="143.63" type="ped_pedestrian">
        <personTrip from="-37626752" to="665689268#0" modes="public"/>
    </person>
    <person id="ped160" depart="144.54" type="ped_pedestrian">
        <personTrip from="596072109#2" to="80248979#1" modes="public"/>
    </person>
    <person id="ped161" depart="145.44" type="ped_pedestrian">
        <personTrip from="52029287#2" to="610191136" modes="public"/>
    </person>
    <person id="ped162" depart="146.34" type="ped_pedestrian">
        <personTrip from="-154381210#1" to="468150232" modes="public"/>
    </person>
    <person id="ped163" depart="147.25" type="ped_pedestrian">
        <personTrip from="122690563#0" to="665689273#3" modes="public"/>
    </person>
    <person id="ped164" depart="148.15" type="ped_pedestrian">
        <personTrip from="510998902" to="596066328" modes="public"/>
    </person>
    <person id="ped165" depart="149.05" type="ped_pedestrian">
        <personTrip from="52029287#2" to="-62170956#0" modes="public"/>
    </person>
    <person id="ped166" depart="149.96" type="ped_pedestrian">
        <personTrip from="488030096#1" to="-25762471#18" modes="public"/>
    </person>
    <person id="ped167" depart="150.86" type="ped_pedestrian">
        <personTrip from="600410889#0" to="595824434#1" modes="public"/>
    </person>
    <person id="ped168" depart="151.76" type="ped_pedestrian">
        <personTrip from="-485793108#0" to="523472811" modes="public"/>
    </person>
    <person id="ped169" depart="152.67" type="ped_pedestrian">
        <personTrip from="225199028" to="-86222280#1" modes="public"/>
    </person>
    <person id="ped170" depart="153.57" type="ped_pedestrian">
        <personTrip from="497172062#2" to="-499658099#1" modes="public"/>
    </person>
    <person id="ped171" depart="154.47" type="ped_pedestrian">
        <personTrip from="-154381204#0" to="-4685892#0" modes="public"/>
    </person>
    <person id="ped172" depart="155.38" type="ped_pedestrian">
        <personTrip from="122048055#9" to="596072108" modes="public"/>
    </person>
    <person id="ped173" depart="156.28" type="ped_pedestrian">
        <personTrip from="77402947#2" to="-69720502#0" modes="public"/>
    </person>
    <person id="ped174" depart="157.18" type="ped_pedestrian">
        <personTrip from="385558110#0" to="175574452#1" modes="public"/>
    </person>
    <person id="ped175" depart="158.09" type="ped_pedestrian">
        <personTrip from="818875552#2" to="286601114" modes="public"/>
    </person>
    <person id="ped176" depart="158.99" type="ped_pedestrian">
        <personTrip from="694352541" to="-264590081#1" modes="public"/>
    </person>
    <person id="ped177" depart="159.89" type="ped_pedestrian">
        <personTrip from="77908125#2" to="-438362813" modes="public"/>
    </person>
    <person id="ped178" depart="160.80" type="ped_pedestrian">
        <personTrip from="75010491" to="-617822269#0" modes="public"/>
    </person>
    <person id="ped179" depart="161.70" type="ped_pedestrian">
        <personTrip from="-25762471#2" to="198597176" modes="public"/>
    </person>
    <person id="ped180" depart="162.60" type="ped_pedestrian">
        <personTrip from="456213018#0" to="10563256#1" modes="public"/>
    </person>
    <person id="ped181" depart="163.51" type="ped_pedestrian">
        <personTrip from="364425832" to="25857914#4" modes="public"/>
    </person>
    <person id="ped182" depart="164.41" type="ped_pedestrian">
        <personTrip from="167464744#0" to="32838761#4" modes="public"/>
    </person>
    <person id="ped183" depart="165.31" type="ped_pedestrian">
        <personTrip from="-599927583#13" to="432626731" modes="public"/>
    </person>
    <person id="ped184" depart="166.22" type="ped_pedestrian">
        <personTrip from="-106277831#8" to="656220567" modes="public"/>
    </person>
    <person id="ped185" depart="167.12" type="ped_pedestrian">
        <personTrip from="289897738#1" to="441730281#0" modes="public"/>
    </person>
    <person id="ped186" depart="168.02" type="ped_pedestrian">
        <personTrip from="4685874#2" to="396744565" modes="public"/>
    </person>
    <person id="ped187" depart="168.93" type="ped_pedestrian">
        <personTrip from="154381213#2" to="-198585459#6" modes="public"/>
    </person>
    <person id="ped188" depart="169.83" type="ped_pedestrian">
        <personTrip from="394669713#0" to="122684964#1" modes="public"/>
    </person>
    <person id="ped189" depart="170.73" type="ped_pedestrian">
        <personTrip from="105963771#0" to="58177945#0" modes="public"/>
    </person>
    <person id="ped190" depart="171.64" type="ped_pedestrian">
        <personTrip from="443269777" to="-823493476#0" modes="public"/>
    </person>
    <person id="ped191" depart="172.54" type="ped_pedestrian">
        <personTrip from="100774714#3" to="179463343#1" modes="public"/>
    </person>
    <person id="ped192" depart="173.44" type="ped_pedestrian">
        <personTrip from="176050265" to="-814556019" modes="public"/>
    </person>
    <person id="ped193" depart="174.35" type="ped_pedestrian">
        <personTrip from="-30136488#2" to="190231148" modes="public"/>
    </person>
    <person id="ped194" depart="175.25" type="ped_pedestrian">
        <personTrip from="69720502#10" to="407759969" modes="public"/>
    </person>
    <person id="ped195" depart="176.15" type="ped_pedestrian">
        <personTrip from="625964243" to="37287191#4" modes="public"/>
    </person>
    <person id="ped196" depart="177.06" type="ped_pedestrian">
        <personTrip from="-823493478" to="303230627#1" modes="public"/>