<?xml version="1.0" encoding="UTF-8"?>

<!-- generated on 09/08/20 21:24:38 by Eclipse SUMO polyconvert Version 1.6.0
<configuration xmlns:xsi="http://www.w3.org/2001/XMLSchema-instance" xsi:noNamespaceSchemaLocation="http://sumo.dlr.de/xsd/polyconvertConfiguration.xsd">

    <input>
        <net-file value="osm.net.xml"/>
        <osm-files value="osm_bbox.osm.xml"/>
        <osm.keep-full-type value="true"/>
        <type-file value="C:\Program%20Files%20(x86)\Eclipse\Sumo\data\typemap\osmPolyconvert.typ.xml"/>
    </input>

    <output>
        <output-file value="osm.poly.xml"/>
    </output>

    <processing>
        <poi-layer-offset value="5"/>
    </processing>

    <report>
        <verbose value="true"/>
    </report>

</configuration>
-->

<additional xmlns:xsi="http://www.w3.org/2001/XMLSchema-instance" xsi:noNamespaceSchemaLocation="http://sumo.dlr.de/xsd/additional_file.xsd">
    <location netOffset="-394312.13,-5816262.86" convBoundary="-13286.15,-7142.06,20764.44,16034.20" origBoundary="13.242202,52.423012,13.750921,52.627610" projParameter="+proj=utm +zone=33 +ellps=WGS84 +datum=WGS84 +units=m +no_defs"/>

    <poly id="102249745" type="amenity.parking" color="184,184,179" fill="1" layer="-1.00" shape="1144.807120,1366.905496 1201.905005,1335.666654 1194.315292,1320.817795 1137.036467,1352.494543 1144.807120,1366.905496"/>
    <poly id="102249748" type="amenity.parking" color="184,184,179" fill="1" layer="-1.00" shape="749.104870,1562.311054 693.159375,1592.573730 691.627210,1596.178415 694.578691,1604.939127 756.893419,1575.296750 749.104870,1562.311054"/>
    <poly id="102406137" type="amenity.parking" color="184,184,179" fill="1" layer="-1.00" shape="557.683948,1991.665626 604.435241,1972.091400 606.682518,1977.462209 560.195750,1997.653869 557.683948,1991.665626"/>
    <poly id="10295991" type="natural.water" color="181,209,209" fill="1" layer="-4.00" shape="2035.904898,1180.983276 2014.193696,1196.720058 1991.219524,1214.063720 1979.637485,1222.898946 1930.859239,1259.894321 1917.998847,1269.925117 1914.419900,1271.525313 1906.972706,1272.929234 1896.954570,1280.240510 1819.774551,1335.675441 1815.052306,1342.284927 1806.435734,1353.872923 1788.453001,1378.522518 1782.771899,1388.267982 1782.388185,1392.270783 1784.082237,1394.660601 1789.363029,1402.871804 1796.998323,1411.633974 1800.251106,1414.836425 1811.556623,1426.313752 1814.237613,1429.773129 1817.819631,1435.694778 1819.126234,1439.350192 1819.943547,1440.746026 1839.970952,1456.834412 1837.339618,1459.883383 1838.534015,1463.051582 1842.907898,1463.081307 1836.530067,1473.275433 1841.153328,1478.985872 1841.542232,1488.046302 1843.862521,1493.393833 1842.564178,1498.139276 1843.733572,1504.935474 1849.465443,1511.690643 1854.818984,1517.897473 1866.367793,1522.604423 1881.151525,1510.440811 1890.780070,1504.317218 1909.324694,1493.375930 1912.949202,1494.256124 1920.783797,1495.770452 1931.124424,1500.825822 1937.899201,1508.093118 1950.534872,1512.499078 1952.242965,1519.728982 1957.393481,1526.296287 1962.948334,1534.001141 1968.259000,1533.376900 1988.542389,1546.200181 2033.498031,1558.156735 2039.021712,1551.230077 2053.383835,1546.731416 2064.333591,1543.673588 2077.158469,1534.233648 2084.282450,1536.831465 2089.244567,1533.210384 2086.610811,1529.082236 2087.051733,1526.168720 2092.498546,1522.025547 2117.079113,1505.238108 2192.926133,1453.229798 2231.770911,1423.390039 2360.283430,1323.705882 2356.737048,1251.799052 2433.233992,1114.602653 2434.138419,1112.402680 2439.882644,1099.452081 2447.484596,1090.223338 2451.528354,1080.045848 2460.357648,1072.337952 2472.342560,1063.228369 2484.627545,1046.434768 2498.369550,1034.328439 2503.318644,1021.984401 2511.719758,1013.929549 2525.675166,1005.824582 2526.817481,1004.921497 2557.092025,980.650423 2551.754372,963.560166 2548.540474,954.447897 2546.945728,944.177721 2550.462214,932.164315 2555.373132,923.804657 2562.394778,918.927904 2569.591283,915.583028 2579.515418,907.596410 2582.542563,893.946508 2586.504446,879.531431 2594.890914,874.637150 2603.880319,874.514872 2609.525784,862.968596 2619.446924,849.986047 2648.628467,803.373043 2662.420771,775.187459 2690.456522,737.033177 2697.243014,727.732977 2701.581825,724.771031 2708.382961,724.572526 2736.487381,733.317899 2749.875063,735.640518 2764.211105,732.346322 2783.344710,724.322581 2777.940902,715.701227 2639.527056,496.055098 2629.008327,493.572306 2622.876682,492.354818 2617.840319,494.775137 2583.258837,518.524288 2570.803205,527.287373 2564.953823,532.384232 2555.603889,539.290566 2552.886389,542.162896 2547.451632,547.918682 2537.152201,558.761779 2534.854696,562.226148 2520.654675,583.944673 2505.030053,605.092362 2513.795197,612.040386 2455.945232,713.480325 2452.731861,717.954339 2351.466273,777.214630 2251.403288,836.707648 2239.449119,846.317837 2207.466197,897.732722 2208.029818,908.024577 2203.959068,911.760219 2199.391538,921.882218 2195.219167,932.062641 2191.485224,948.854476 2190.788728,950.927707 2188.829207,957.834540 2188.757890,962.498328 2188.552649,973.685464 2188.494036,979.272538 2189.401591,983.014359 2191.383460,988.424826 2192.435424,991.929928 2203.285844,999.545506 2207.184090,1008.231418 2207.055800,1015.344385 2219.760229,1033.257996 2218.208843,1038.587273 2218.472183,1042.376077 2215.163551,1054.863834 2214.596243,1060.161213 2211.678686,1063.828002 2218.806752,1073.669731 2209.220768,1080.581765 2206.643119,1077.186759 2205.105982,1081.581059 2206.669772,1083.918132 2162.555963,1111.999903 2161.669173,1110.527591 2141.264410,1124.166538 2035.904898,1180.983276"/>
    <poly id="104648000" type="leisure.playground" color="207,245,201" fill="1" layer="-2.00" shape="1778.205115,2678.242920 1764.758343,2658.832936 1773.575515,2652.982156 1786.135178,2644.648543 1799.847605,2664.742839 1778.205115,2678.242920"/>
    <poly id="104863721" type="leisure.pitch" color="207,245,201" fill="1" layer="-2.00" shape="1171.915515,1779.226409 1240.120979,1769.805178 1224.644744,1666.863003 1157.291456,1677.145278 1171.915515,1779.226409"/>
    <poly id="104863721#1" type="sport.soccer" color="79,230,125" fill="1" layer="-2.00" shape="1171.915515,1779.226409 1240.120979,1769.805178 1224.644744,1666.863003 1157.291456,1677.145278 1171.915515,1779.226409"/>
    <poly id="104863725" type="leisure.track" color="207,245,201" fill="1" layer="-2.00" shape="1162.121355,1763.512188 1164.870495,1774.291503 1167.038360,1782.969039 1170.897360,1789.752255 1175.633494,1794.680771 1182.703105,1799.815458 1186.516193,1801.581271 1192.327996,1804.094505 1199.712507,1805.528251 1207.336344,1805.766289 1212.416501,1804.856823 1219.855277,1802.784356 1227.390450,1798.862723 1233.372897,1793.772452 1237.877713,1789.125391 1241.291010,1782.966036 1244.986364,1776.021765 1250.317601,1774.784298 1231.596239,1646.696910 1216.647192,1648.784783 1208.302134,1643.076362 1199.615491,1640.457486 1193.535771,1639.719183 1187.427656,1639.560111 1179.171533,1641.527648 1171.909837,1644.909407 1165.629816,1648.470532 1159.789022,1654.158731 1153.244114,1664.401877 1150.850889,1671.585496 1149.789843,1681.055171 1151.892615,1700.049058 1162.121355,1763.512188"/>
    <poly id="104863725#1" type="sport.athletics" color="79,230,125" fill="1" layer="-2.00" shape="1162.121355,1763.512188 1164.870495,1774.291503 1167.038360,1782.969039 1170.897360,1789.752255 1175.633494,1794.680771 1182.703105,1799.815458 1186.516193,1801.581271 1192.327996,1804.094505 1199.712507,1805.528251 1207.336344,1805.766289 1212.416501,1804.856823 1219.855277,1802.784356 1227.390450,1798.862723 1233.372897,1793.772452 1237.877713,1789.125391 1241.291010,1782.966036 1244.986364,1776.021765 1250.317601,1774.784298 1231.596239,1646.696910 1216.647192,1648.784783 1208.302134,1643.076362 1199.615491,1640.457486 1193.535771,1639.719183 1187.427656,1639.560111 1179.171533,1641.527648 1171.909837,1644.909407 1165.629816,1648.470532 1159.789022,1654.158731 1153.244114,1664.401877 1150.850889,1671.585496 1149.789843,1681.055171 1151.892615,1700.049058 1162.121355,1763.512188"/>
    <poly id="104950564" type="landuse.railway" color="194,194,130" fill="1" layer="-3.00" shape="5918.664602,2941.129258 5903.755491,2996.032746 5878.322583,2994.514634 5841.146167,2993.347266 5784.173905,2993.796686 5699.720936,2995.174786 5660.932201,2996.834556 5634.326032,2998.702003 5496.874035,3008.599165 5212.422532,3024.550701 5172.675884,3025.833422 5170.064152,3025.920393 5162.575436,3035.787917 5009.001376,3043.982322 4907.646315,3049.015099 4831.597068,3050.691518 4783.910381,3053.398233 4743.524667,3054.297036 4702.425967,3052.551514 4634.983969,3048.946254 4556.583061,3045.557021 4533.600013,3044.028685 4489.626984,3034.599881 4470.160350,3033.077088 4412.264799,3027.297024 4405.642514,3043.868572 4378.713338,3031.740591 4347.246701,3020.140574 4329.422583,3015.001450 4262.968658,2994.578995 4239.442755,2985.541381 4163.705647,2956.811430 4140.613192,2945.450869 4076.784904,2915.551837 4024.966437,2888.998412 3997.079940,2871.395568 3965.347492,2851.669573 3940.107943,2836.671449 3823.730170,2764.894532 3812.943891,2758.420315 3801.953080,2751.905866 3785.511612,2742.166687 3782.754138,2738.518726 3782.693062,2735.582447 3784.634837,2733.305515 3794.959008,2732.245125 3788.614090,2727.803861 3744.239369,2696.681026 3864.839859,2674.578279 3903.945358,2712.543530 3974.659782,2767.222078 4046.379325,2812.834445 4076.602202,2822.299742 4115.743750,2831.035075 4191.307734,2842.454249 4518.918639,2894.884748 4601.615473,2910.925251 4721.492167,2941.444716 4874.471713,2979.085751 4934.910550,2985.753633 4997.799726,2989.445490 5168.689714,2979.448942 5168.123796,2967.087352 5209.093976,2964.867101 5209.151872,2970.006577 5209.443798,2978.612870 5452.693308,2966.029935 5499.844982,2963.674515 5567.627249,2960.018836 5663.073902,2949.456805 5747.706798,2940.886426 5825.720129,2937.259287 5918.664602,2941.129258"/>
    <poly id="105849841" type="building.apartments" color="255,230,230" fill="1" layer="-1.00" shape="677.280157,3034.578897 673.401750,3021.498417 670.818133,3022.265952 671.140064,3023.349528 667.220773,3024.512899 665.676232,3019.282789 684.875240,3013.608006 689.961682,3030.790836 677.280157,3034.578897"/>
    <poly id="105849845" type="building.apartments" color="255,230,230" fill="1" layer="-1.00" shape="650.167575,2935.859951 650.032577,2935.896228 649.952688,2935.653139 655.476314,2933.954630 659.544963,2932.788050 668.317637,2962.309921 658.846366,2965.116764 652.677736,2944.329658 650.167575,2935.859951"/>
    <poly id="105849848" type="building.yes" color="255,230,230" fill="1" layer="-1.00" shape="624.981633,2956.462593 631.212715,2954.515209 636.449874,2971.750395 630.007504,2973.657795 624.981633,2956.462593"/>
    <poly id="105849849" type="building.apartments" color="255,230,230" fill="1" layer="-1.00" shape="680.113004,3052.722468 678.634084,3047.702366 680.968054,3047.006951 677.280157,3034.578897 689.968945,3030.812935 695.142741,3048.272080 685.327947,3051.197514 680.113004,3052.722468"/>
    <poly id="105849850" type="building.residential" color="255,230,230" fill="1" layer="-1.00" shape="557.376369,2960.461108 553.641796,2948.089774 573.474770,2942.211791 577.961914,2957.070639 573.746166,2958.340591 572.338359,2959.171965 571.454050,2956.242199 557.376369,2960.461108"/>
    <poly id="105849852" type="building.residential" color="255,230,230" fill="1" layer="-1.00" shape="590.445614,2951.016595 586.623249,2938.346685 599.691273,2934.527851 603.578257,2947.363294 604.178820,2949.408966 598.977838,2950.955958 598.297620,2948.678321 590.445614,2951.016595"/>
    <poly id="105849853" type="building.apartments" color="255,230,230" fill="1" layer="-1.00" shape="647.207940,2987.164723 645.371433,2980.983929 653.749592,2978.489805 654.004129,2978.962823 657.410847,2977.955087 657.571339,2978.474630 660.296522,2977.659545 658.965676,2973.214895 658.378902,2973.394385 657.442378,2970.243178 658.130461,2970.039261 656.843187,2965.727205 658.846366,2965.116764 668.317637,2962.309921 669.363693,2962.020440 669.407506,2962.164156 669.563100,2962.138566 674.622131,2978.988150 654.918604,2984.885205 647.207940,2987.164723"/>
    <poly id="105849858" type="building.residential" color="255,230,230" fill="1" layer="-1.00" shape="623.919335,2943.332880 623.363549,2941.475410 620.746205,2942.254820 616.934384,2929.440007 627.519145,2926.319894 631.852557,2940.981792 623.919335,2943.332880"/>
    <poly id="105849860" type="building.residential" color="255,230,230" fill="1" layer="-1.00" shape="573.416676,3013.539203 571.584586,3006.935500 572.293017,3006.731134 570.188614,2999.142943 560.429025,3002.111951 560.218876,3001.493330 558.830318,2996.894160 581.926578,2989.978097 583.256059,2994.355994 580.497445,2995.194094 581.249579,2997.659350 582.065866,2997.419290 584.058413,3003.908280 583.357244,3004.134743 585.137733,3009.916134 573.416676,3013.539203"/>
    <poly id="105849862" type="building.garage" color="255,230,230" fill="1" layer="-1.00" shape="795.511744,2998.118710 790.163508,3000.714619 783.990773,2987.950246 788.975454,2985.495643 789.332473,2985.365598 795.511744,2998.118710"/>
    <poly id="105849864" type="building.yes" color="255,230,230" fill="1" layer="-1.00" shape="611.287758,2972.879789 611.113928,2972.371660 607.377830,2959.922432 624.477642,2954.804303 624.981633,2956.462593 630.007504,2973.657795 624.887730,2975.191891 623.139297,2969.320781 611.287758,2972.879789"/>
    <poly id="105849866" type="building.yes" color="255,230,230" fill="1" layer="-1.00" shape="623.408553,3013.212296 629.567305,3011.377732 633.224618,3023.639501 633.467468,3023.567529 634.879884,3028.333116 628.355209,3030.197776 624.437492,3016.873373 623.408553,3013.212296"/>
    <poly id="105849867" type="building.residential" color="255,230,230" fill="1" layer="-1.00" shape="573.474770,2942.211791 586.623249,2938.346685 590.445614,2951.016595 582.849801,2953.271495 583.471923,2955.372339 584.065483,2955.192694 586.654927,2963.872090 585.899228,2964.088595 586.637792,2966.554143 589.221189,2965.775442 589.008895,2965.056721 594.209859,2963.509718 598.046953,2976.234954 584.975121,2980.187407 577.961914,2957.070639 573.474770,2942.211791"/>
    <poly id="105849869" type="building.apartments" color="255,230,230" fill="1" layer="-1.00" shape="664.980655,3019.453483 663.495641,3014.466899 663.259904,3013.604022 666.700288,3012.584442 666.882803,3013.181405 669.810821,3012.328594 669.451861,3011.101157 670.794326,3010.705176 670.091169,3008.305622 669.492019,3008.541013 667.011680,3000.193059 679.774239,2996.380983 684.875240,3013.608006 665.676232,3019.282789 664.980655,3019.453483"/>
    <poly id="105849873" type="building.residential" color="255,230,230" fill="1" layer="-1.00" shape="603.578257,2947.363294 599.691273,2934.527851 616.934384,2929.440007 620.746205,2942.254820 603.578257,2947.363294"/>
    <poly id="105849874" type="building.apartments" color="255,230,230" fill="1" layer="-1.00" shape="667.011680,3000.193059 664.509306,2991.767688 665.298455,2991.528223 664.537432,2988.963000 662.805040,2987.954173 660.046172,2988.781106 660.229643,2989.422557 656.593653,2990.501970 654.918604,2984.885205 674.622131,2978.988150 679.774239,2996.380983 667.011680,3000.193059"/>
    <poly id="105850179" type="building.residential" color="255,230,230" fill="1" layer="-1.00" shape="578.140776,3030.585050 573.416676,3013.539203 585.137733,3009.916134 589.705264,3024.728758 591.459015,3024.201530 592.108983,3026.335160 578.140776,3030.585050"/>
    <poly id="105850184" type="building.residential" color="255,230,230" fill="1" layer="-1.00" shape="580.674917,3064.847355 578.862763,3058.855226 579.827128,3058.556351 573.887596,3038.966169 567.999366,3040.750491 566.041692,3034.305268 578.140776,3030.585050 592.108983,3026.335160 597.505948,3024.750572 599.461570,3031.418397 586.346786,3035.260499 588.735324,3043.120783 590.657515,3042.534305 591.745873,3046.116210 589.661785,3046.750670 593.947697,3060.779299 580.674917,3064.847355"/>
    <poly id="105850587" type="building.residential" color="255,230,230" fill="1" layer="-1.00" shape="615.975443,3083.184558 611.962252,3069.839956 637.350651,3062.507777 641.182822,3075.644860 615.975443,3083.184558"/>
    <poly id="107098154" type="building.yes" color="255,230,230" fill="1" layer="-1.00" shape="1641.281002,1583.258543 1611.871734,1580.422410 1610.937380,1590.145189 1640.346355,1592.970193 1641.281002,1583.258543"/>
    <poly id="107988400" type="building.commercial" color="255,230,230" fill="1" layer="-1.00" shape="1010.643744,2187.690123 1012.020998,2192.089359 1027.503498,2241.441940 1004.260920,2248.692699 987.407715,2194.940814 1010.643744,2187.690123"/>
    <poly id="108219127" type="building.apartments" color="255,230,230" fill="1" layer="-1.00" shape="4437.505068,1355.185311 4416.727470,1288.563235 4435.188696,1282.829747 4444.412651,1279.968731 4460.971225,1274.830993 4481.777482,1341.552789 4467.290579,1346.046822 4450.222156,1291.309548 4435.647345,1295.827739 4452.686700,1350.465426 4437.505068,1355.185311"/>
    <poly id="108734636" type="amenity.parking" color="184,184,179" fill="1" layer="-1.00" shape="2285.955693,2863.973128 2299.510593,2856.142810 2279.088699,2820.065512 2310.548670,2832.954479 2318.862825,2819.660086 2272.096772,2801.118837 2266.672546,2830.709279 2285.955693,2863.973128"/>
    <poly id="108857030" type="amenity.parking" color="184,184,179" fill="1" layer="-1.00" shape="2936.839160,1092.158712 2954.427835,1113.843985 2964.109319,1104.316567 2967.682503,1106.634016 2969.855365,1109.859853 2945.296927,1145.424945 2931.914790,1155.942404 2921.364098,1142.466116 2926.837548,1138.245461 2919.687810,1128.915054 2917.083825,1130.716606 2906.142825,1117.415438 2916.261817,1109.325273 2936.839160,1092.158712"/>
    <poly id="108857062" type="building.house" color="255,230,230" fill="1" layer="-1.00" shape="2661.076205,1230.159590 2665.084968,1227.026496 2671.727399,1235.465909 2667.718872,1238.610120 2661.076205,1230.159590"/>
    <poly id="109868332" type="building.yes" color="255,230,230" fill="1" layer="-1.00" shape="2386.308378,2168.465825 2379.268163,2156.585774 2389.703375,2150.434998 2396.736550,2162.304084 2386.308378,2168.465825"/>
    <poly id="109868335" type="building.apartments" color="255,230,230" fill="1" layer="-1.00" shape="2402.783422,2196.960164 2390.089794,2175.207066 2401.056675,2168.833688 2403.043442,2172.252361 2404.398185,2171.456031 2406.617117,2175.259262 2405.161511,2176.102227 2409.691109,2183.873665 2411.072762,2183.065643 2413.150792,2186.627049 2411.675064,2187.481563 2413.556032,2190.713307 2402.783422,2196.960164"/>
    <poly id="109868340" type="building.apartments" color="255,230,230" fill="1" layer="-1.00" shape="2345.038740,2096.920366 2336.724621,2082.597004 2337.252524,2081.228355 2347.562291,2077.494735 2353.204069,2088.091229 2356.343974,2086.622993 2355.983304,2085.940713 2357.880543,2085.110677 2357.624490,2084.559718 2367.495421,2079.978602 2369.886036,2085.480656 2361.774973,2089.156739 2356.094269,2091.846903 2345.038740,2096.920366"/>
    <poly id="110004381" type="building.apartments" color="255,230,230" fill="1" layer="-1.00" shape="2394.025264,1781.767545 2394.381320,1770.310187 2394.849408,1770.289194 2406.240835,1770.805756 2405.834193,1782.119525 2394.025264,1781.767545"/>
    <poly id="110004386" type="building.apartments" color="255,230,230" fill="1" layer="-1.00" shape="2440.622258,1783.155712 2440.665050,1781.641517 2438.184417,1781.537998 2438.121264,1783.052623 2428.159885,1782.728399 2428.188161,1781.170000 2425.627017,1781.112694 2425.564571,1782.660685 2420.319411,1782.515283 2420.763257,1769.743074 2424.986102,1769.064353 2425.056138,1771.099149 2429.784070,1771.188691 2429.854477,1769.696167 2441.570282,1770.139214 2441.605866,1770.539042 2441.193014,1770.603376 2441.120721,1771.684234 2445.904356,1771.839381 2446.053177,1770.523241 2450.138674,1771.382983 2449.707609,1783.476161 2440.622258,1783.155712"/>
    <poly id="110016265" type="leisure.pitch" color="207,245,201" fill="1" layer="-2.00" shape="2148.986751,1949.339706 2176.574424,1948.679008 2174.959092,1902.101352 2147.512774,1903.037243 2148.986751,1949.339706"/>
    <poly id="110016265#1" type="sport.multi" color="79,230,125" fill="1" layer="-2.00" shape="2148.986751,1949.339706 2176.574424,1948.679008 2174.959092,1902.101352 2147.512774,1903.037243 2148.986751,1949.339706"/>
    <poly id="110639235" type="building.train_station" color="255,230,230" fill="1" layer="-1.00" shape="1786.179150,1770.637889 1749.206315,1783.472672 1754.166490,1817.884094 1761.978375,1850.688362 1770.795763,1881.601946 1783.888077,1915.907720 1827.851870,1901.378314 1786.179150,1770.637889"/>
    <poly id="110899789" type="building.apartments" color="255,230,230" fill="1" layer="-1.00" shape="3459.872109,1516.914673 3459.253808,1515.269635 3457.106569,1510.318364 3454.723966,1504.826776 3458.714174,1503.397169 3460.044647,1506.629652 3461.574536,1506.074769 3463.793874,1512.204009 3463.099157,1512.429913 3464.245491,1515.299045 3459.872109,1516.914673"/>
    <poly id="110899790" type="building.apartments" color="255,230,230" fill="1" layer="-1.00" shape="3443.813255,1536.811066 3439.298426,1524.810116 3444.527092,1522.853941 3449.681562,1520.921574 3454.196136,1532.911411 3443.813255,1536.811066"/>
    <poly id="110899791" type="building.garages" color="255,230,230" fill="1" layer="-1.00" shape="3485.678304,1488.681176 3475.269939,1469.548239 3470.184018,1460.118400 3475.166907,1457.444127 3490.630248,1486.152214 3485.678304,1488.681176"/>
    <poly id="110899792" type="building.apartments" color="255,230,230" fill="1" layer="-1.00" shape="3499.946660,1516.101213 3493.860639,1504.622568 3499.840644,1501.571461 3504.824664,1498.952828 3511.892931,1511.946545 3508.960256,1512.964613 3499.946660,1516.101213"/>
    <poly id="113176677" type="amenity.parking" color="184,184,179" fill="1" layer="-1.00" shape="2751.997194,2693.315618 2764.859936,2715.822668 2772.389364,2728.772283 2804.787902,2720.124767 2815.153907,2717.503628 2803.741171,2697.436231 2793.549121,2702.846655 2787.003172,2691.144847 2773.201849,2698.611755 2765.995083,2685.188018 2751.997194,2693.315618"/>
    <poly id="113315271" type="amenity.parking" color="184,184,179" fill="1" layer="-1.00" shape="1789.894813,2315.759331 1803.771227,2293.911686 1815.741212,2300.311999 1806.543371,2315.461975 1809.215454,2317.241317 1819.368842,2323.146043 1816.747466,2328.242242 1789.894813,2315.759331"/>
    <poly id="114119438" type="building.hospital" color="255,230,230" fill="1" layer="-1.00" shape="3494.459995,3016.203211 3497.655049,3033.339065 3495.937561,3033.664198 3495.364377,3030.593947 3492.740645,3031.082639 3495.156569,3044.062080 3526.195549,3038.307327 3521.478393,3012.958019 3520.331358,3006.784144 3504.953678,3009.630735 3505.787029,3014.108703 3494.459995,3016.203211"/>
    <poly id="114252857" type="amenity.kindergarten" color="237,199,199" fill="1" layer="-1.00" shape="3548.015718,2865.515788 3545.902206,2853.687239 3543.548645,2854.114632 3541.340411,2841.976501 3553.514235,2839.775444 3555.614393,2851.615401 3557.981528,2851.187732 3560.155789,2863.326577 3548.015718,2865.515788"/>
    <poly id="114252857#1" type="building.kindergarten" color="255,230,230" fill="1" layer="-1.00" shape="3548.015718,2865.515788 3545.902206,2853.687239 3543.548645,2854.114632 3541.340411,2841.976501 3553.514235,2839.775444 3555.614393,2851.615401 3557.981528,2851.187732 3560.155789,2863.326577 3548.015718,2865.515788"/>
    <poly id="114396974" type="building.apartments" color="255,230,230" fill="1" layer="-1.00" shape="3125.869516,2948.998456 3115.054024,2891.875660 3124.675871,2890.038521 3135.192185,2947.468030 3125.869516,2948.998456"/>
    <poly id="115100428" type="leisure.playground" color="207,245,201" fill="1" layer="-2.00" shape="1493.327368,2320.977458 1491.300284,2323.034595 1490.176119,2325.406349 1489.846925,2327.805707 1490.077320,2329.380876 1490.491115,2330.640583 1491.119714,2331.784449 1492.024667,2332.833420 1492.861209,2333.538902 1494.153867,2334.301448 1495.523469,2334.850941 1497.757961,2335.204007 1499.477952,2334.989397 1500.462398,2334.668029 1501.563562,2334.088252 1493.327368,2320.977458"/>
    <poly id="11663144" type="landuse.grass" color="194,194,130" fill="1" layer="-3.00" shape="4400.810431,3074.790377 4402.869110,3064.700095 4398.452937,3062.221060 4382.927579,3055.309526 4345.554367,3040.059609 4292.397449,3024.135206 4304.658898,3092.435160 4400.810431,3074.790377"/>
    <poly id="117762353" type="building.yes" color="255,230,230" fill="1" layer="-1.00" shape="1968.224145,2493.810967 1966.670445,2494.823053 1973.218571,2504.276093 1981.607057,2516.638898 1970.903927,2523.864473 1973.770381,2528.098898 1958.047078,2538.713302 1955.313793,2534.676356 1944.752073,2541.843361 1930.629185,2521.267768 1932.221466,2520.154709 1925.949206,2510.907296 1950.705908,2494.048317 1952.190285,2496.175568 1954.105496,2494.922153 1951.248769,2490.186808 1962.709466,2483.145443 1967.804238,2491.293980 1966.959525,2491.801459 1968.224145,2493.810967"/>
    <poly id="117762353#1" type="leisure.sports_centre" color="207,245,201" fill="1" layer="-2.00" shape="1968.224145,2493.810967 1966.670445,2494.823053 1973.218571,2504.276093 1981.607057,2516.638898 1970.903927,2523.864473 1973.770381,2528.098898 1958.047078,2538.713302 1955.313793,2534.676356 1944.752073,2541.843361 1930.629185,2521.267768 1932.221466,2520.154709 1925.949206,2510.907296 1950.705908,2494.048317 1952.190285,2496.175568 1954.105496,2494.922153 1951.248769,2490.186808 1962.709466,2483.145443 1967.804238,2491.293980 1966.959525,2491.801459 1968.224145,2493.810967"/>
    <poly id="117762353#2" type="sport.multi" color="79,230,125" fill="1" layer="-2.00" shape="1968.224145,2493.810967 1966.670445,2494.823053 1973.218571,2504.276093 1981.607057,2516.638898 1970.903927,2523.864473 1973.770381,2528.098898 1958.047078,2538.713302 1955.313793,2534.676356 1944.752073,2541.843361 1930.629185,2521.267768 1932.221466,2520.154709 1925.949206,2510.907296 1950.705908,2494.048317 1952.190285,2496.175568 1954.105496,2494.922153 1951.248769,2490.186808 1962.709466,2483.145443 1967.804238,2491.293980 1966.959525,2491.801459 1968.224145,2493.810967"/>
    <poly id="117762354" type="leisure.playground" color="207,245,201" fill="1" layer="-2.00" shape="2095.768224,2695.129909 2106.728875,2688.856093 2116.546576,2683.752566 2104.345859,2662.201186 2095.203438,2667.134677 2083.516880,2673.434995 2095.768224,2695.129909"/>
    <poly id="118327391" type="amenity.nightclub" color="237,199,199" fill="1" layer="-1.00" shape="794.371491,1237.682835 780.669815,1242.894326 772.635257,1244.768768 768.513013,1244.767986 766.336206,1243.646217 766.365169,1240.874904 768.288829,1238.419108 776.797397,1233.941858 790.870287,1229.256522 802.734421,1227.033109 809.217010,1227.528653 804.370734,1232.094388 794.371491,1237.682835"/>
    <poly id="118327391#1" type="building.boat" color="255,230,230" fill="1" layer="-1.00" shape="794.371491,1237.682835 780.669815,1242.894326 772.635257,1244.768768 768.513013,1244.767986 766.336206,1243.646217 766.365169,1240.874904 768.288829,1238.419108 776.797397,1233.941858 790.870287,1229.256522 802.734421,1227.033109 809.217010,1227.528653 804.370734,1232.094388 794.371491,1237.682835"/>
    <poly id="118446697" type="building.residential" color="255,230,230" fill="1" layer="-1.00" shape="1376.627390,2116.204270 1378.193412,2120.555070 1383.947528,2118.785754 1386.471743,2127.322261 1380.905142,2129.287874 1382.676655,2134.680262 1387.305883,2133.335474 1391.110181,2143.636224 1389.684325,2143.955881 1389.922649,2145.263824 1386.332678,2146.308307 1390.528468,2159.371408 1395.941317,2154.649519 1396.251534,2155.188152 1398.641665,2153.279032 1398.020363,2152.479966 1400.114245,2150.688424 1397.376914,2141.388667 1398.279952,2141.069012 1397.200073,2137.865093 1396.400967,2138.282681 1394.426581,2131.014101 1395.232475,2130.596368 1394.167506,2128.093149 1393.255548,2128.312849 1390.401081,2119.571951 1391.202083,2119.243339 1390.130718,2116.439822 1389.426072,2116.510456 1388.094598,2112.332696 1376.627390,2116.204270"/>
    <poly id="118610190" type="amenity.place_of_worship" color="237,199,199" fill="1" layer="-1.00" shape="1600.331935,2218.079610 1597.519097,2219.908593 1586.493315,2226.974946 1583.991722,2223.000034 1584.776074,2222.527154 1581.318644,2217.025865 1580.541077,2217.498602 1578.011147,2213.468659 1605.341785,2196.297342 1605.697056,2196.401068 1605.773836,2196.499582 1619.322783,2206.248571 1606.155375,2214.461960 1600.331935,2218.079610"/>
    <poly id="118610190#1" type="building.church" color="255,230,230" fill="1" layer="-1.00" shape="1600.331935,2218.079610 1597.519097,2219.908593 1586.493315,2226.974946 1583.991722,2223.000034 1584.776074,2222.527154 1581.318644,2217.025865 1580.541077,2217.498602 1578.011147,2213.468659 1605.341785,2196.297342 1605.697056,2196.401068 1605.773836,2196.499582 1619.322783,2206.248571 1606.155375,2214.461960 1600.331935,2218.079610"/>
    <poly id="118755032" type="amenity.community_centre" color="237,199,199" fill="1" layer="-1.00" shape="1341.978654,2370.643364 1339.594061,2355.271769 1337.838123,2343.914854 1337.498940,2342.653570 1330.968228,2327.392534 1339.405347,2323.774526 1344.839827,2336.021176 1347.032810,2335.062041 1348.465275,2338.881568 1352.396685,2362.487779 1360.511429,2363.182917 1364.567199,2372.543602 1349.928297,2379.208970 1337.125921,2382.842038 1332.483614,2372.403396 1341.978654,2370.643364"/>