<?xml version="1.0" encoding="UTF-8"?>

<!-- generated on 09/08/20 21:24:58 by Eclipse SUMO duarouter Version 1.6.0
<configuration xmlns:xsi="http://www.w3.org/2001/XMLSchema-instance" xsi:noNamespaceSchemaLocation="http://sumo.dlr.de/xsd/duarouterConfiguration.xsd">

    <input>
        <net-file value="C:\Users\pro\Sumo\2020-09-08-21-23-44\osm.net.xml"/>
        <route-files value="C:\Users\pro\Sumo\2020-09-08-21-23-44\osm.passenger.trips.xml"/>
    </input>

    <output>
        <output-file value="C:\Users\pro\Sumo\2020-09-08-21-23-44\osm.passenger.trips.xml.tmp"/>
        <write-trips value="true"/>
    </output>

    <time>
        <begin value="0"/>
        <end value="3600.0"/>
    </time>

    <report>
        <no-warnings value="true"/>
        <ignore-errors value="true"/>
        <no-step-log value="true"/>
    </report>

</configuration>
-->

<routes xmlns:xsi="http://www.w3.org/2001/XMLSchema-instance" xsi:noNamespaceSchemaLocation="http://sumo.dlr.de/xsd/routes_file.xsd">
    <vType id="veh_passenger" vClass="passenger"/>
    <trip id="veh0" type="veh_passenger" depart="0.00" departLane="best" from="25762471#10" to="-129285627#1"/>
    <trip id="veh1" type="veh_passenger" depart="2.16" departLane="best" from="-4685800#2" to="-360153809#2"/>
    <trip id="veh2" type="veh_passenger" depart="4.32" departLane="best" from="37226921#2" to="310172807#2"/>
    <trip id="veh3" type="veh_passenger" depart="6.48" departLane="best" from="497898321#1" to="-175744669#7"/>
    <trip id="veh4" type="veh_passenger" depart="8.64" departLane="best" from="109788651" to="-132105451#2"/>
    <trip id="veh5" type="veh_passenger" depart="10.80" departLane="best" from="-34883298#3" to="175573818#1"/>
    <trip id="veh6" type="veh_passenger" depart="12.96" departLane="best" from="-129413465#4" to="-31526264#2"/>
    <trip id="veh7" type="veh_passenger" depart="15.12" departLane="best" departSpeed="max" from="25771279" to="194071688#2"/>
    <trip id="veh8" type="veh_passenger" depart="17.28" departLane="best" departSpeed="max" from="-34883298#6" to="22281515#0"/>
    <trip id="veh9" type="veh_passenger" depart="19.44" departLane="best" departSpeed="max" from="4685800#0" to="-11273371#2"/>
    <trip id="veh10" type="veh_passenger" depart="21.60" departLane="best" from="4685797#5" to="32446831#2"/>
    <trip id="veh11" type="veh_passenger" depart="23.76" departLane="best" departSpeed="max" from="-485793106#1" to="-237483993#0"/>
    <trip id="veh13" type="veh_passenger" depart="28.08" departLane="best" from="4689034#2" to="22820618"/>
    <trip id="veh14" type="veh_passenger" depart="30.24" departLane="best" from="4685799#1" to="37226921#0"/>
    <trip id="veh15" type="veh_passenger" depart="32.40" departLane="best" from="187399685#2" to="667302890#1"/>
    <trip id="veh16" type="veh_passenger" depart="34.56" departLane="best" departSpeed="max" from="-611138190" to="195387461"/>
    <trip id="veh17" type="veh_passenger" depart="36.72" departLane="best" from="4688626#0" to="24021390#1"/>
    <trip id="veh18" type="veh_passenger" depart="38.88" departLane="best" from="4689083#0" to="199029775#5"/>
    <trip id="veh19" type="veh_passenger" depart="41.04" departLane="best" departSpeed="max" from="32644395#0" to="-154381215#0"/>
    <trip id="veh20" type="veh_passenger" depart="43.20" departLane="best" from="-35559332#4" to="-4688758"/>
    <trip id="veh21" type="veh_passenger" depart="45.36" departLane="best" from="-187398148#1" to="-4685877"/>
    <trip id="veh22" type="veh_passenger" depart="47.52" departLane="best" from="25585952#2" to="-600833787#0"/>
    <trip id="veh24" type="veh_passenger" depart="51.84" departLane="best" departSpeed="max" from="-4685728#2" to="61737905#0"/>
    <trip id="veh25" type="veh_passenger" depart="54.00" departLane="best" from="25771112#0" to="23248778#3"/>
    <trip id="veh26" type="veh_passenger" depart="56.16" departLane="best" from="-25214249#4" to="37226919#2"/>
    <trip id="veh27" type="veh_passenger" depart="58.32" departLane="best" from="-24180030#1" to="-6229430#0"/>
    <trip id="veh28" type="veh_passenger" depart="60.48" departLane="best" from="77094760" to="255373844"/>
    <trip id="veh29" type="veh_passenger" depart="62.64" departLane="best" from="198585459#15" to="311849674#2"/>
    <trip id="veh31" type="veh_passenger" depart="66.96" departLane="best" from="-35559332#7" to="-146693079"/>
    <trip id="veh32" type="veh_passenger" depart="69.12" departLane="best" from="-4689055#2" to="-4685799#1"/>
    <trip id="veh33" type="veh_passenger" depart="71.29" departLane="best" from="-32446834#2" to="6229286#2"/>
    <trip id="veh34" type="veh_passenger" depart="73.45" departLane="best" from="470350079#1" to="-4689083#2"/>
    <trip id="veh35" type="veh_passenger" depart="75.61" departLane="best" from="25797141#0" to="-665689273#2"/>
    <trip id="veh36" type="veh_passenger" depart="77.77" departLane="best" departSpeed="max" from="584375671" to="146693079"/>
    <trip id="veh38" type="veh_passenger" depart="82.09" departLane="best" from="198585468#0" to="-4534558#0"/>
    <trip id="veh39" type="veh_passenger" depart="84.25" departLane="best" from="22278709#2" to="563060637"/>
    <trip id="veh40" type="veh_passenger" depart="86.41" departLane="best" from="-69720502#6" to="-35556350#2"/>
    <trip id="veh41" type="veh_passenger" depart="88.57" departLane="best" from="97133107#1" to="175574444#1"/>
    <trip id="veh42" type="veh_passenger" depart="90.73" departLane="best" from="-179307467#2" to="-154381216#0"/>
    <trip id="veh43" type="veh_passenger" depart="92.89" departLane="best" from="-194071688#5" to="25214249#11"/>
    <trip id="veh44" type="veh_passenger" depart="95.05" departLane="best" departSpeed="max" from="4479174#0" to="109762285#1"/>
    <trip id="veh45" type="veh_passenger" depart="97.21" departLane="best" from="-168829867#1" to="-6229835#0"/>
    <trip id="veh46" type="veh_passenger" depart="99.37" departLane="best" from="82533418#4" to="182390330#1"/>
    <trip id="veh47" type="veh_passenger" depart="101.53" departLane="best" from="628787796" to="4689086#4"/>
    <trip id="veh48" type="veh_passenger" depart="103.69" departLane="best" from="-11929488#1" to="360153809#1"/>
    <trip id="veh49" type="veh_passenger" depart="105.85" departLane="best" from="310172807#2" to="184453366#4"/>
    <trip id="veh50" type="veh_passenger" depart="108.01" departLane="best" departSpeed="max" from="-4685728#2" to="25553598#2"/>
    <trip id="veh51" type="veh_passenger" depart="110.17" departLane="best" from="-194818297" to="122048055#6"/>
    <trip id="veh52" type="veh_passenger" depart="112.33" departLane="best" from="470350079#0" to="-4534558#0"/>
    <trip id="veh53" type="veh_passenger" depart="114.49" departLane="best" from="175573818#0" to="-25762471#17"/>
    <trip id="veh54" type="veh_passenger" depart="116.65" departLane="best" from="58177945#1" to="4689267"/>
    <trip id="veh55" type="veh_passenger" depart="118.81" departLane="best" from="-4688816#4" to="25463304#4"/>
    <trip id="veh56" type="veh_passenger" depart="120.97" departLane="best" from="234812473#0" to="-237483988"/>
    <trip id="veh58" type="veh_passenger" depart="125.29" departLane="best" from="431356086#0" to="183930096#1"/>
    <trip id="veh59" type="veh_passenger" depart="127.45" departLane="best" from="-106277831#0" to="-4689089#9"/>
    <trip id="veh60" type="veh_passenger" depart="129.61" departLane="best" from="-127538497#3" to="60819742#0"/>
    <trip id="veh61" type="veh_passenger" depart="131.77" departLane="best" from="472040395#1" to="4689026#0"/>
    <trip id="veh62" type="veh_passenger" depart="133.93" departLane="best" from="-4689054#0" to="-155605329#0"/>
    <trip id="veh63" type="veh_passenger" depart="136.09" departLane="best" from="472040395#0" to="623919822#1"/>
    <trip id="veh64" type="veh_passenger" depart="138.25" departLane="best" from="-175744669#7" to="155605266#0"/>
    <trip id="veh65" type="veh_passenger" depart="140.41" departLane="best" from="-175569521#0" to="39351130#1"/>
    <trip id="veh66" type="veh_passenger" depart="142.57" departLane="best" from="409110191#0" to="-198597173#4"/>
    <trip id="veh67" type="veh_passenger" depart="144.73" departLane="best" from="154381216#0" to="194818300#1"/>
    <trip id="veh69" type="veh_passenger" depart="149.05" departLane="best" from="112441857#3" to="-34883298#1"/>
    <trip id="veh70" type="veh_passenger" depart="151.21" departLane="best" from="-268561900#1" to="-4689055#3"/>
    <trip id="veh71" type="veh_passenger" depart="153.37" departLane="best" from="824274199#0" to="25762471#19"/>
    <trip id="veh72" type="veh_passenger" depart="155.53" departLane="best" departSpeed="max" from="127361055#0" to="175744669#1"/>
    <trip id="veh73" type="veh_passenger" depart="157.69" departLane="best" from="-198585459#4" to="-36987812#1"/>
    <trip id="veh74" type="veh_passenger" depart="159.85" departLane="best" from="-47351009#1" to="22281062#0"/>
    <trip id="veh75" type="veh_passenger" depart="162.01" departLane="best" from="-360153809#2" to="-35559332#2"/>
    <trip id="veh76" type="veh_passenger" depart="164.17" departLane="best" from="-175573811#1" to="25331350"/>
    <trip id="veh77" type="veh_passenger" depart="166.33" departLane="best" from="4689055#5" to="-175571990#0"/>
    <trip id="veh78" type="veh_passenger" depart="168.49" departLane="best" departSpeed="max" from="-380267142#1" to="310172801#0"/>
    <trip id="veh79" type="veh_passenger" depart="170.65" departLane="best" from="-34246432#2" to="-202112398#1"/>
    <trip id="veh81" type="veh_passenger" depart="174.97" departLane="best" from="154381213#0" to="4479174#2"/>
    <trip id="veh82" type="veh_passenger" depart="177.13" departLane="best" from="4685799#2" to="-25797635#2"/>
    <trip id="veh83" type="veh_passenger" depart="179.29" departLane="best" departSpeed="max" from="-184453366#4" to="11923627#6"/>
    <trip id="veh84" type="veh_passenger" depart="181.45" departLane="best" from="11273359#0" to="154381204#4"/>
    <trip id="veh85" type="veh_passenger" depart="183.61" departLane="best" from="36987812#0" to="310172805#0"/>
    <trip id="veh86" type="veh_passenger" depart="185.77" departLane="best" from="69720502#7" to="-184453351#1"/>
    <trip id="veh87" type="veh_passenger" depart="187.93" departLane="best" from="-714748342#0" to="-488814363#1"/>
    <trip id="veh88" type="veh_passenger" depart="190.09" departLane="best" from="4689083#0" to="-42157877#7"/>
    <trip id="veh89" type="veh_passenger" depart="192.25" departLane="best" from="-25762471#21" to="129285626#2"/>
    <trip id="veh90" type="veh_passenger" depart="194.41" departLane="best" from="109788651" to="-4685879#0"/>
    <trip id="veh91" type="veh_passenger" depart="196.57" departLane="best" from="-42157877#11" to="600410891#0"/>
    <trip id="veh92" type="veh_passenger" depart="198.73" departLane="best" departSpeed="max" from="127538490#0" to="4689087#0"/>
    <trip id="veh93" type="veh_passenger" depart="200.89" departLane="best" departSpeed="max" from="195387453#0" to="-154381219#3"/>
    <trip id="veh94" type="veh_passenger" depart="203.05" departLane="best" from="99963094#1" to="4689026#5"/>
    <trip id="veh95" type="veh_passenger" depart="205.21" departLane="best" departSpeed="max" from="628786749" to="60769283#0"/>
    <trip id="veh96" type="veh_passenger" depart="207.37" departLane="best" from="4689036#10" to="-25376553#3"/>
    <trip id="veh97" type="veh_passenger" depart="209.53" departLane="best" from="155605329#1" to="-34944815#0"/>
    <trip id="veh98" type="veh_passenger" depart="211.70" departLane="best" from="-70688298" to="-155605329#1"/>
    <trip id="veh99" type="veh_passenger" depart="213.86" departLane="best" departSpeed="max" from="-611138195" to="758683447#0"/>
    <trip id="veh101" type="veh_passenger" depart="218.18" departLane="best" from="130118934#0" to="109788651"/>
    <trip id="veh103" type="veh_passenger" depart="222.50" departLane="best" from="198585459#11" to="35559332#5"/>
    <trip id="veh104" type="veh_passenger" depart="224.66" departLane="best" from="-23248770#1" to="-4688816#5"/>
    <trip id="veh105" type="veh_passenger" depart="226.82" departLane="best" from="628786004#2" to="202112398#0"/>
    <trip id="veh106" type="veh_passenger" depart="228.98" departLane="best" from="19410643#1" to="383626941#1"/>
    <trip id="veh107" type="veh_passenger" depart="231.14" departLane="best" from="-155605333#2" to="21797876#4"/>
    <trip id="veh108" type="veh_passenger" depart="233.30" departLane="best" from="175573820" to="4689054#9"/>
    <trip id="veh109" type="veh_passenger" depart="235.46" departLane="best" from="-23248778#6" to="628786003#2"/>
    <trip id="veh110" type="veh_passenger" depart="237.62" departLane="best" from="-175574451#0" to="-25782019"/>
    <trip id="veh111" type="veh_passenger" depart="239.78" departLane="best" from="223184062#1" to="310172806#1"/>
    <trip id="veh112" type="veh_passenger" depart="241.94" departLane="best" from="-380267133" to="-198585459#16"/>
    <trip id="veh113" type="veh_passenger" depart="244.10" departLane="best" from="49677300#4" to="-42157877#10"/>
    <trip id="veh114" type="veh_passenger" depart="246.26" departLane="best" from="223184062#0" to="24180030#1"/>
    <trip id="veh116" type="veh_passenger" depart="250.58" departLane="best" from="176050279#5" to="611138190"/>
    <trip id="veh117" type="veh_passenger" depart="252.74" departLane="best" from="-30498173#1" to="35552254#6"/>
    <trip id="veh118" type="veh_passenger" depart="254.90" departLane="best" from="-383557654#1" to="-665689273#2"/>
    <trip id="veh119" type="veh_passenger" depart="257.06" departLane="best" from="310172796#1" to="-4689034#1"/>
    <trip id="veh120" type="veh_passenger" depart="259.22" departLane="best" from="-4689055#4" to="383776476#1"/>
    <trip id="veh122" type="veh_passenger" depart="263.54" departLane="best" from="-175573818#4" to="-34944815#0"/>
    <trip id="veh124" type="veh_passenger" depart="267.86" departLane="best" from="-596072109#7" to="-24245480#1"/>
    <trip id="veh125" type="veh_passenger" depart="270.02" departLane="best" from="4688802#0" to="338130659"/>
    <trip id="veh126" type="veh_passenger" depart="272.18" departLane="best" from="237483988" to="7624234#2"/>
    <trip id="veh128" type="veh_passenger" depart="276.50" departLane="best" from="4685877" to="-4689033#2"/>
    <trip id="veh129" type="veh_passenger" depart="278.66" departLane="best" from="264590081#0" to="62170955#1"/>
    <trip id="veh130" type="veh_passenger" depart="280.82" departLane="best" from="-202112398#1" to="-195387466#2"/>
    <trip id="veh131" type="veh_passenger" depart="282.98" departLane="best" from="-194070667#1" to="195387482"/>
    <trip id="veh132" type="veh_passenger" depart="285.14" departLane="best" from="-4685799#0" to="229061362#2"/>
    <trip id="veh133" type="veh_passenger" depart="287.30" departLane="best" from="34883298#5" to="-32446828#3"/>
    <trip id="veh134" type="veh_passenger" depart="289.46" departLane="best" departSpeed="max" from="25585952#0" to="-4534558#1"/>
    <trip id="veh135" type="veh_passenger" depart="291.62" departLane="best" departSpeed="max" from="155605357" to="593851921"/>
    <trip id="veh136" type="veh_passenger" depart="293.78" departLane="best" from="4689033#2" to="-176050279#7"/>
    <trip id="veh137" type="veh_passenger" depart="295.94" departLane="best" from="11273359#0" to="-4685875#1"/>
    <trip id="veh138" type="veh_passenger" depart="298.10" departLane="best" from="-108857060" to="42157902#3"/>
    <trip id="veh139" type="veh_passenger" depart="300.26" departLane="best" from="25598727#1" to="-453379903#3"/>
    <trip id="veh140" type="veh_passenger" depart="302.42" departLane="best" from="37226971#1" to="195387449#1"/>
    <trip id="veh141" type="veh_passenger" depart="304.58" departLane="best" from="11923627#0" to="-11929488#1"/>
    <trip id="veh142" type="veh_passenger" depart="306.74" departLane="best" from="-175573823#2" to="489869811#0"/>
    <trip id="veh143" type="veh_passenger" depart="308.90" departLane="best" departSpeed="max" from="547708712" to="194071688#6"/>
    <trip id="veh144" type="veh_passenger" depart="311.06" departLane="best" from="4688807#1" to="21797876#2"/>
    <trip id="veh145" type="veh_passenger" depart="313.22" departLane="best" from="-4689054#10" to="563341821#0"/>
    <trip id="veh146" type="veh_passenger" depart="315.38" departLane="best" departSpeed="max" from="4534558#0" to="4689086#3"/>
    <trip id="veh148" type="veh_passenger" depart="319.70" departLane="best" from="-42157877#10" to="-187398148#1"/>
    <trip id="veh149" type="veh_passenger" depart="321.86" departLane="best" from="431551309#3" to="489869811#2"/>
    <trip id="veh150" type="veh_passenger" depart="324.02" departLane="best" from="-7626019#4" to="24180030#2"/>
    <trip id="veh151" type="veh_passenger" depart="326.18" departLane="best" from="-23248761#3" to="60819742#3"/>
    <trip id="veh152" type="veh_passenger" depart="328.34" departLane="best" from="4685800#10" to="485793108#1"/>
    <trip id="veh153" type="veh_passenger" depart="330.50" departLane="best" from="-129285627#9" to="37287190#2"/>
    <trip id="veh154" type="veh_passenger" depart="332.66" departLane="best" from="-470350075#0" to="60819742#5"/>
    <trip id="veh155" type="veh_passenger" depart="334.82" departLane="best" from="464685679#1" to="4689087#7"/>
    <trip id="veh156" type="veh_passenger" depart="336.98" departLane="best" from="4685800#10" to="-4685797#5"/>
    <trip id="veh157" type="veh_passenger" depart="339.14" departLane="best" from="440033720#0" to="-194071688#2"/>
    <trip id="veh160" type="veh_passenger" depart="345.62" departLane="best" from="146911405#3" to="-4689036#9"/>
    <trip id="veh161" type="veh_passenger" depart="347.78" departLane="best" departSpeed="max" from="4534558#0" to="-37633352#1"/>
    <trip id="veh162" type="veh_passenger" depart="349.94" departLane="best" from="-129285627#2" to="-268561900#1"/>
    <trip id="veh163" type="veh_passenger" depart="352.11" departLane="best" from="-4689090" to="4689089#1"/>
    <trip id="veh164" type="veh_passenger" depart="354.27" departLane="best" from="628786003#1" to="-4685880#0"/>
    <trip id="veh165" type="veh_passenger" depart="356.43" departLane="best" from="25762471#16" to="-69720502#4"/>
    <trip id="veh166" type="veh_passenger" depart="358.59" departLane="best" from="69720502#1" to="184453366#4"/>
    <trip id="veh167" type="veh_passenger" depart="360.75" departLane="best" departSpeed="max" from="609943359#0" to="-195387466#2"/>
    <trip id="veh168" type="veh_passenger" depart="362.91" departLane="best" departSpeed="max" from="628786749" to="-25762471#17"/>
    <trip id="veh169" type="veh_passenger" depart="365.07" departLane="best" from="626979665" to="-4685797#2"/>
    <trip id="veh170" type="veh_passenger" depart="367.23" departLane="best" from="36987811#1" to="-4689055#8"/>
    <trip id="veh171" type="veh_passenger" depart="369.39" departLane="best" from="23248778#4" to="175574445#4"/>
    <trip id="veh172" type="veh_passenger" depart="371.55" departLane="best" from="-627563753#1" to="199029775#5"/>
    <trip id="veh173" type="veh_passenger" depart="373.71" departLane="best" from="-42157902#0" to="34883298#2"/>
    <trip id="veh174" type="veh_passenger" depart="375.87" departLane="best" from="-106277831#3" to="60769279"/>
    <trip id="veh175" type="veh_passenger" depart="378.03" departLane="best" from="187399686#6" to="35559332#8"/>
    <trip id="veh176" type="veh_passenger" depart="380.19" departLane="best" from="37287190#1" to="310172804#1"/>
    <trip id="veh177" type="veh_passenger" depart="382.35" departLane="best" from="-594048997#0" to="-175569515#0"/>
    <trip id="veh179" type="veh_passenger" depart="386.67" departLane="best" departSpeed="max" from="-4689055#11" to="4689054#0"/>
    <trip id="veh181" type="veh_passenger" depart="390.99" departLane="best" from="-4689054#13" to="-818875883#2"/>
    <trip id="veh183" type="veh_passenger" depart="395.31" departLane="best" from="-198597173#1" to="106277831#6"/>
    <trip id="veh184" type="veh_passenger" depart="397.47" departLane="best" from="610510406#0" to="310172807#2"/>
    <trip id="veh186" type="veh_passenger" depart="401.79" departLane="best" from="-4689033#1" to="19410643#3"/>
    <trip id="veh187" type="veh_passenger" depart="403.95" departLane="best" from="-106277831#0" to="-4688621#2"/>
    <trip id="veh189" type="veh_passenger" depart="408.27" departLane="best" departSpeed="max" from="127538490#0" to="-34944815#0"/>
    <trip id="veh190" type="veh_passenger" depart="410.43" departLane="best" from="154381214" to="563494116#0"/>
    <trip id="veh191" type="veh_passenger" depart="412.59" departLane="best" departSpeed="max" from="4534558#0" to="-25463304#3"/>
    <trip id="veh192" type="veh_passenger" depart="414.75" departLane="best" from="-175744669#3" to="175574679#2"/>
    <trip id="veh193" type="veh_passenger" depart="416.91" departLane="best" from="25585757#2" to="-484351594#0"/>
    <trip id="veh194" type="veh_passenger" depart="419.07" departLane="best" departSpeed="max" from="4685879#0" to="383776476#0"/>
    <trip id="veh195" type="veh_passenger" depart="421.23" departLane="best" from="310172800#0" to="-36987812#1"/>
    <trip id="veh196" type="veh_passenger" depart="423.39" departLane="best" from="-25797635#3" to="-129285626#5"/>
    <trip id="veh197" type="veh_passenger" depart="425.55" departLane="best" from="-39351129#2" to="154381215#2"/>
    <trip id="veh198" type="veh_passenger" depart="427.71" departLane="best" from="-99963094#1" to="25214249#9"/>
    <trip id="veh199" type="veh_passenger" depart="429.87" departLane="best" from="-25762471#4" to="32446828#0"/>
    <trip id="veh201" type="veh_passenger" depart="434.19" departLane="best" departSpeed="max" from="25797462#0" to="-11273359#1"/>
    <trip id="veh202" type="veh_passenger" depart="436.35" departLane="best" from="383626941#5" to="42157902#0"/>
    <trip id="veh203" type="veh_passenger" depart="438.51" departLane="best" from="-194070667#0" to="11273359#1"/>
    <trip id="veh205" type="veh_passenger" depart="442.83" departLane="best" from="176050266#3" to="-154381219#0"/>
    <trip id="veh206" type="veh_passenger" depart="444.99" departLane="best" from="-42157877#1" to="4689054#1"/>
    <trip id="veh207" type="veh_passenger" depart="447.15" departLane="best" from="132105451#2" to="4685798#1"/>
    <trip id="veh208" type="veh_passenger" depart="449.31" departLane="best" departSpeed="max" from="287903610#0" to="7624234#2"/>
    <trip id="veh209" type="veh_passenger" depart="451.47" departLane="best" from="223188530#0" to="623919822#1"/>
    <trip id="veh210" type="veh_passenger" depart="453.63" departLane="best" from="49677300#9" to="234812473#0"/>
    <trip id="veh212" type="veh_passenger" depart="457.95" departLane="best" from="4688784#0" to="19410643#3"/>
    <trip id="veh213" type="veh_passenger" depart="460.11" departLane="best" departSpeed="max" from="506581476#0" to="380267133"/>
    <trip id="veh214" type="veh_passenger" depart="462.27" departLane="best" from="154381215#3" to="-4479174#0"/>
    <trip id="veh215" type="veh_passenger" depart="464.43" departLane="best" from="-409110191#2" to="25463304#0"/>
    <trip id="veh216" type="veh_passenger" depart="466.59" departLane="best" from="25461533" to="-4685869#1"/>
    <trip id="veh217" type="veh_passenger" depart="468.75" departLane="best" from="-175574445#2" to="-4688620#4"/>
    <trip id="veh218" type="veh_passenger" depart="470.91" departLane="best" departSpeed="max" from="-4685798#1" to="-4689089#0"/>
    <trip id="veh219" type="veh_passenger" depart="473.07" departLane="best" from="194071688#3" to="-22280995#0"/>
    <trip id="veh220" type="veh_passenger" depart="475.23" departLane="best" from="-36987812#0" to="318276285#1"/>
    <trip id="veh221" type="veh_passenger" depart="477.39" departLane="best" departSpeed="max" from="32644395#0" to="-157598000#2"/>
    <trip id="veh222" type="veh_passenger" depart="479.55" departLane="best" from="-785790737#0" to="187399686#5"/>
    <trip id="veh223" type="veh_passenger" depart="481.71" departLane="best" from="103066047#1" to="-338130659"/>
    <trip id="veh224" type="veh_passenger" depart="483.87" departLane="best" from="108857060" to="58177945#1"/>
    <trip id="veh225" type="veh_passenger" depart="486.03" departLane="best" from="22278709#0" to="32235182#0"/>
    <trip id="veh226" type="veh_passenger" depart="488.19" departLane="best" from="4689054#6" to="421557806"/>
    <trip id="veh227" type="veh_passenger" depart="490.35" departLane="best" from="-62170956#0" to="-11273371#0"/>
    <trip id="veh228" type="veh_passenger" depart="492.52" departLane="best" departSpeed="max" from="-511855927" to="384136808#3"/>
    <trip id="veh229" type="veh_passenger" depart="494.68" departLane="best" from="4689054#11" to="626979655#0"/>
    <trip id="veh230" type="veh_passenger" depart="496.84" departLane="best" from="106277831#6" to="38207292#1"/>
    <trip id="veh231" type="veh_passenger" depart="499.00" departLane="best" from="194818300#4" to="22742033#5"/>
    <trip id="veh232" type="veh_passenger" depart="501.16" departLane="best" departSpeed="max" from="-34883298#6" to="-35556350#2"/>
    <trip id="veh233" type="veh_passenger" depart="503.32" departLane="best" from="122048056#2" to="-132105451#0"/>
    <trip id="veh234" type="veh_passenger" depart="505.48" departLane="best" from="-470766231#1" to="310172807#4"/>
    <trip id="veh235" type="veh_passenger" depart="507.64" departLane="best" departSpeed="max" from="-741661401" to="-25376552#4"/>
    <trip id="veh237" type="veh_passenger" depart="511.96" departLane="best" from="25214249#8" to="-129285627#9"/>
    <trip id="veh238" type="veh_passenger" depart="514.12" departLane="best" from="-665689273#1" to="198589918#1"/>
    <trip id="veh239" type="veh_passenger" depart="516.28" departLane="best" from="-132105451#0" to="25585952#1"/>
    <trip id="veh241" type="veh_passenger" depart="520.60" departLane="best" from="-154381228#0" to="-6229430#0"/>
    <trip id="veh242" type="veh_passenger" depart="522.76" departLane="best" from="-335239860#0" to="-4689093#1"/>
    <trip id="veh243" type="veh_passenger" depart="524.92" departLane="best" from="39351130#0" to="-6229430#0"/>
    <trip id="veh244" type="veh_passenger" depart="527.08" departLane="best" from="383626941#8" to="4689026#0"/>
    <trip id="veh245" type="veh_passenger" depart="529.24" departLane="best" from="-42157877#8" to="-175574451#1"/>
    <trip id="veh246" type="veh_passenger" depart="531.40" departLane="best" from="-127538497#3" to="184727726"/>
    <trip id="veh247" type="veh_passenger" depart="533.56" departLane="best" from="99963094#2" to="-530413368#1"/>
    <trip id="veh248" type="veh_passenger" depart="535.72" departLane="best" departSpeed="max" from="25771279" to="440033720#1"/>
    <trip id="veh249" type="veh_passenger" depart="537.88" departLane="best" departSpeed="max" from="25771279" to="385402830#1"/>
    <trip id="veh251" type="veh_passenger" depart="542.20" departLane="best" from="-129285626#0" to="-237460073#1"/>
    <trip id="veh252" type="veh_passenger" depart="544.36" departLane="best" from="-198595363#0" to="310172804#0"/>
    <trip id="veh253" type="veh_passenger" depart="546.52" departLane="best" from="198589918#1" to="-35552254#4"/>
    <trip id="veh254" type="veh_passenger" depart="548.68" departLane="best" from="320892561" to="42157877#2"/>
    <trip id="veh255" type="veh_passenger" depart="550.84" departLane="best" from="-24245761#0" to="23248761#1"/>
    <trip id="veh256" type="veh_passenger" depart="553.00" departLane="best" from="38207292#0" to="-195387449#1"/>
    <trip id="veh257" type="veh_passenger" depart="555.16" departLane="best" from="4685880#0" to="645012958#1"/>
    <trip id="veh258" type="veh_passenger" depart="557.32" departLane="best" from="-194071688#1" to="-129285627#2"/>
    <trip id="veh259" type="veh_passenger" depart="559.48" departLane="best" from="-4689054#7" to="310172807#2"/>
    <trip id="veh260" type="veh_passenger" depart="561.64" departLane="best" from="6263126#1" to="-665689274#1"/>
    <trip id="veh262" type="veh_passenger" depart="565.96" departLane="best" from="311849674#4" to="25214249#11"/>
    <trip id="veh263" type="veh_passenger" depart="568.12" departLane="best" from="-187399685#2" to="431551308"/>
    <trip id="veh264" type="veh_passenger" depart="570.28" departLane="best" from="4689036#3" to="223288638#1"/>
    <trip id="veh265" type="veh_passenger" depart="572.44" departLane="best" from="-198585459#4" to="741661400"/>
    <trip id="veh266" type="veh_passenger" depart="574.60" departLane="best" from="432763465#1" to="-506581476#0"/>
    <trip id="veh267" type="veh_passenger" depart="576.76" departLane="best" from="11929488#1" to="-608703537"/>
    <trip id="veh268" type="veh_passenger" depart="578.92" departLane="best" from="175574445#2" to="-490079484"/>
    <trip id="veh269" type="veh_passenger" depart="581.08" departLane="best" from="4689036#12" to="4688784#0"/>
    <trip id="veh270" type="veh_passenger" depart="583.24" departLane="best" departSpeed="max" from="-189217698#2" to="628786003#2"/>
    <trip id="veh271" type="veh_passenger" depart="585.40" departLane="best" from="25585952#1" to="4688811#4"/>
    <trip id="veh272" type="veh_passenger" depart="587.56" departLane="best" from="32644395#1" to="122048055#7"/>
    <trip id="veh273" type="veh_passenger" depart="589.72" departLane="best" from="37226918#1" to="665689268#0"/>