<?xml version="1.0" encoding="UTF-8"?>

<!-- generated on 09/08/20 21:25:06 by Eclipse SUMO duarouter Version 1.6.0
<configuration xmlns:xsi="http://www.w3.org/2001/XMLSchema-instance" xsi:noNamespaceSchemaLocation="http://sumo.dlr.de/xsd/duarouterConfiguration.xsd">

    <input>
        <net-file value="C:\Users\pro\Sumo\2020-09-08-21-23-44\osm.net.xml"/>
        <additional-files value="C:\Users\pro\Sumo\2020-09-08-21-23-44\osm_stops.add.xml,C:\Users\pro\Sumo\2020-09-08-21-23-44\osm_pt.rou.xml"/>
        <route-files value="C:\Users\pro\Sumo\2020-09-08-21-23-44\osm.pedestrian.trips.xml"/>
    </input>

    <output>
        <output-file value="C:\Users\pro\Sumo\2020-09-08-21-23-44\osm.pedestrian.rou.xml"/>
        <alternatives-output value="C:\Users\pro\Sumo\2020-09-08-21-23-44\osm.pedestrian.rou.alt.xml"/>
    </output>

    <time>
        <begin value="0"/>
        <end value="3600.0"/>
    </time>

    <report>
        <no-warnings value="true"/>
        <ignore-errors value="true"/>
        <no-step-log value="true"/>
    </report>

</configuration>
-->

<routes xmlns:xsi="http://www.w3.org/2001/XMLSchema-instance" xsi:noNamespaceSchemaLocation="http://sumo.dlr.de/xsd/routes_file.xsd">
    <vType id="ped_pedestrian" vClass="pedestrian"/>
    <person id="ped0" type="ped_pedestrian" depart="0.00">
        <walk edges="385402827#0 -69720502#8 -69720502#9 373664972#1 373664972#0 373664971#2 373664971#1 373664971#0 373664969#2 32446828#0 32446828#2 32446828#3 -60769278#0 -60769278#1 203650076 223188530#1 346422752#3 346422752#2 172093543 430955165 430955157#0 430955157#1 430955179 430955136 430955156#0 430955156#1 430955156#2 430955156#3 430955156#4 430955156#5 430955156#6 430955175#0 430955124 422975278 430955134 10124982#2 10124982#1 430955108 10124901 154381211#1 -216981476#2 -216981476#1 -216981476#0 -822848138 822848139 -41556728#2 -41556728#1 -41556728#0 -41556694#1 -41556694#0 41556573#1 -154381210#2"/>
    </person>
    <person id="ped1" type="ped_pedestrian" depart="0.90">
        <walk edges="-659365919 132105451#3 132105451#2 132105451#1 132105451#0 -25771112#2 667302889 -175573823#3 -175573823#2 -175573823#0 -175568045 -175568044#1" busStop="-4003905946"/> <!-- S Nöldnerplatz/Schlichtallee -->
        <ride busStop="-3983685979" lines="194:0" intended="pt_bus_194:0.0" depart="663.00"/> <!-- S Rummelsburg -->
        <walk edges="-198589917 -360153809#0 385250928#2 385250928#1 625764183 625737814 385250929" busStop="1106283718"/> <!-- S Rummelsburg -->
        <ride busStop="4095970537" lines="S3:3" intended="pt_train_S3:3.0" depart="876.00"/> <!-- S Ostkreuz -->
        <walk edges="432785730 511790333#1 511790333#0 432785724 686694130#0 523796334#0 -194070666 323446706 -665689273#1 665689273#2 -488238914#0 -488238911#1 -488238911#0"/>
    </person>
    <person id="ped2" type="ped_pedestrian" depart="1.81">
        <walk edges="468150232 -304906026 127538497#3 -127538497#4 127538491 495534269#1 -23430154#4 -23430154#1 -23430154#0 4685868 4479174#2 4479174#1 4479174#0 -4479174#0" busStop="3935369910"/> <!-- U Samariterstraße -->
        <ride busStop="1784905015" lines="U5:0" intended="pt_subway_U5:0.3" depart="1277.00"/> <!-- U Lichtenberg -->
        <walk edges="430955156#2 430955156#3 430955156#4 430955156#5 430955156#6 422984409 422975280 10124982#4 407759965"/>
    </person>
    <person id="ped3" type="ped_pedestrian" depart="2.71">
        <walk edges="619761079#1 619761077 619761078 360025812#0 28191498#2 28191498#1 28191498#0 -184453365#0 -184453365#1 -28191497 379714287 -172430685#0" busStop="-4003905921"/> <!-- Balatonstraße -->
        <ride busStop="-4003905946" lines="194:0" intended="pt_bus_194:0.0" depart="278.00"/> <!-- S Nöldnerplatz/Schlichtallee -->
        <walk edges="-175568044#1 198941812 -198941811#0 -175568046 175568047#0 487422125 -38207292#0 -667302888 490720498 603730694 -155605357 -77906096#0 -108857060 579938158 -22742033#4"/>
    </person>
    <person id="ped4" type="ped_pedestrian" depart="3.61">
        <walk edges="190795303#2 -190795303#1 -190795303#0 176050265 44108324 547372893#1 -665689269#2 -665689269#3 -56473168#1 313867761#1" busStop="-3910983107"/> <!-- Marktstraße -->
        <ride busStop="471493995" lines="21:0" intended="pt_tram_21:0.0" depart="527.00"/> <!-- Boxhagener Straße/Holteistraße -->
        <walk edges="25376553#3 25376553#2 129285625#0 129285626#0 -154947623"/>
    </person>
    <person id="ped5" type="ped_pedestrian" depart="4.52">
        <walk edges="-475674921#0 -475674921#1 -42127523#2 42127523#3 -22278792#0 -22278792#1 -22278792#2 -184453348#0 28073737#0 459012906#0 459012906#1 460738721 460983209 460983210 627528805 32838988#2 32838988#1 52066976 620099120 606069597 28073731#1 28073731#0 25762471#19 25762471#21 25762471#22"/>
    </person>
    <person id="ped6" type="ped_pedestrian" depart="5.42">
        <walk edges="-154381215#3 -154381216#0 -154381216#1 -154381216#2 -154381216#3 55796764 55796766#1 474221740#0 474221740#1 474221740#2 167464744#3 167464744#4 55597593#0 4688816#3 4688816#2 -4688812#0 -4688812#1"/>
    </person>
    <person id="ped7" type="ped_pedestrian" depart="6.32">
        <walk edges="389457787#4 432626762 389457791#0 122684964#7 122684964#8 11273371#3 -154381214 -410953173#2 727319537#1 839616288#1 692200967#1 628748770#0 628748770#1 97133107#2 97133107#1 97133107#0 -665689273#3 -665689273#2" busStop="-3910983109"/> <!-- Neue Bahnhofstraße -->
        <ride busStop="3910983106" lines="240:0" intended="pt_bus_240:0.0" depart="807.00"/> <!-- Marktstraße -->
        <walk edges="313867761#1 -56473168#1 -665689269#3 -665689269#2 547372893#1 44108324 -155605347#0 -155605347#1 -155605347#2 286601117 122890267#1 438362812 30136228#1"/>
    </person>
    <person id="ped8" type="ped_pedestrian" depart="7.23">
        <walk edges="-477496811#2 -477496811#1 478623128 -198585459#1 -198585459#0 -633055774#1 -633055774#0 -4689029#1 -120311789#3 -120311789#2" busStop="-4003905957"/> <!-- Wönnichstraße -->
        <ride busStop="-4003905946" lines="194:0" intended="pt_bus_194:0.0" depart="497.00"/> <!-- S Nöldnerplatz/Schlichtallee -->
        <walk edges="-175568044#1 69724367#0 69724367#1 69724367#2 -30691726#1 30691726#0 175573808#1 175573808#0" busStop="1117011753"/> <!-- S Nöldnerplatz -->
        <ride busStop="1117011942" lines="S5:1" intended="pt_train_S5:1.1" depart="1011.00"/> <!-- S Lichtenberg -->
        <walk edges="430955176#0 430955163#0 235969679 430955156#1 430955156#2 430955156#3 430955156#4 430955156#5 430955156#6" busStop="2445663203"/> <!-- U Lichtenberg -->
        <ride busStop="3933477402" lines="U5:1" intended="pt_subway_U5:1.3" depart="1321.00"/> <!-- U Magdalenenstraße -->
        <walk edges="311849674#5 25797873#0 25797873#1 -25797732#0 25797732#1 -25797736#0 -25797736#1 -25797736#2 518874788 625539543 -397467637 345271481#1"/>
    </person>
    <person id="ped9" type="ped_pedestrian" depart="8.13">
        <walk edges="52028088#2 -52028088#3 -52028088#4 -25214249#0 -4689087#7 -4689087#6 -4689087#5 -4689087#4 -4689087#3 -4689087#2 -4689087#1 -4689087#0 -25762471#2 -25762471#0 -383557654#1 -120311789#3 -120311789#2"/>
    </person>
    <person id="ped10" type="ped_pedestrian" depart="9.03">
        <walk edges="518019156#0 432785729 518019155#0 518019155#1 432785728 385558110#6 385558110#5 385558110#4 385558110#3 645476445 645476446 394669710#1 394669705#1 394669709#0" busStop="4439191866"/> <!-- S Ostkreuz -->
        <ride busStop="1117011942" lines="S7:1" intended="pt_train_S7:1.0" depart="345.00"/> <!-- S Lichtenberg -->
        <walk edges="430955176#0 430955163#0 235969679 430955156#0 430955121 430955130 430955113 430955114#1 172093541 51824172#1 232454576#0 43632182 391759635#0 391759635#1 430955135"/>
    </person>
    <person id="ped12" type="ped_pedestrian" depart="10.84">
        <walk edges="74207613#0 74208272#1 373604314 4689055#7 4689055#8 -4689055#9 -4689055#11" busStop="3951294989"/> <!-- U Friedrichsfelde -->
        <ride busStop="3880774070" lines="U5:1" intended="pt_subway_U5:1.2" depart="922.00"/> <!-- U Frankfurter Allee -->
        <walk edges="6263126#2 6263126#1 545634695#0" busStop="288268520"/> <!-- S+U Frankfurter Allee -->
        <ride busStop="386791058" lines="16:0" intended="pt_tram_16:0.2" depart="1369.00"/> <!-- Scharnweberstraße/Weichselstraße -->
        <walk edges="-37633352#2 -182709704 127538492#5 127538487#1"/>
    </person>
    <person id="ped13" type="ped_pedestrian" depart="11.74">
        <walk edges="-238749891 -599927583#12 -599927583#13 -599927583#14 -599927583#15 -26634782#1 -26634782#0 198585458#1 -24245763#0 -24245763#1 383557487 628786003#0 -24245812#0"/>
    </person>
    <person id="ped14" type="ped_pedestrian" depart="12.65">
        <walk edges="58177940#0 -601294901#0 -26492572#2 -26492572#1 -26492572#0 -190795303#0 82009785 176050266#1 176050266#0" busStop="-3910983111"/> <!-- S Rummelsburg -->
        <walk edges="82009779#3 667302890#5 26492575 26492574#1 625764183 385250928#1 385250928#2 360153809#1"/>
    </person>
    <person id="ped15" type="ped_pedestrian" depart="13.55">
        <walk edges="51824177#0 4689026#0 60769279 37226970 310172807#4" busStop="2445663203"/> <!-- U Lichtenberg -->
        <ride busStop="3880774070" lines="U5:1" intended="pt_subway_U5:1.1" depart="721.00"/> <!-- U Frankfurter Allee -->
        <walk edges="56950463#1 56950463#0 56949793 122676016#1 122676016#0" busStop="316787417"/> <!-- S Frankfurter Allee -->
        <ride busStop="1797163098" lines="S85:3" intended="pt_train_S85:3.1" depart="1159.00"/> <!-- S Ostkreuz -->
        <walk edges="380092010 380091997 380092008#1 385558129#19 645476448 385558110#3 385558110#2 628419615#1 60815657#2 60815657#1 31735206 25857914#2 25857914#1 25857914#0 653135737#2 653135737#1 653135737#0 45689071"/>
    </person>
    <person id="ped16" type="ped_pedestrian" depart="14.45">
        <walk edges="286601114 286601107#2 31735375#2 452942255#8 452942255#6 452942255#5 30136228#5 452942255#3 438362814 -601294901#2 58177940#0 58177940#1 -155605347#0 44108324 547372893#1 -665689269#2 -665689269#3 -56473168#1 4688625#1 4688625#0 184726169#0 184726169#1 184726169#2 184726169#3 -37626752 154381234 184727726 176050279#0 176050279#1 176050279#2 176050279#3 176050279#4 176050279#5 176050279#6 176050279#7 176050279#8 176050279#9 176050279#10 42157884#0 822828541 822828542 78629886#1 78629906#2 78629897#3"/>
    </person>
    <person id="ped17" type="ped_pedestrian" depart="15.36">
        <walk edges="156530446#2 -156530446#1 155497935#0 100774715 -78629897#3 78629906#1 78629906#0 310172804#1"/>
    </person>
    <person id="ped18" type="ped_pedestrian" depart="16.26">
        <walk edges="553086557#1 37287190#6 37287190#5 37287190#4 37287190#3 37287190#2 37287190#1 4616572#6 4616572#4 4616572#0" busStop="3876349057"/> <!-- U Frankfurter Tor -->
        <ride busStop="1784905015" lines="U5:0" intended="pt_subway_U5:0.1" depart="594.00"/> <!-- U Lichtenberg -->
        <walk edges="430955156#2 430955156#1 430955156#0 430955136 430955179 430955157#1 430955157#0 430955165 172093543 346422752#2 346422752#3 223188530#1 203650076 -60769278#1 -60769278#0 32446828#3 32446828#2 32446828#0 373664969#2 373664971#0 373664971#1 373666857"/>
    </person>
    <person id="ped19" type="ped_pedestrian" depart="17.16">
        <walk edges="596058385 556232493 55597593#1 55597593#0 4688816#3 4688816#2 -4688812#0 441730281#0 484713941#1 484713941#0 58182828 -58182826#0 58182817 166622530 166622533#0 166622533#1 166622531 166622532 -464685678 -464685679#3 154615364#0 154615364#1 154615364#2 -175568045 175568044#1" busStop="4003905947"/> <!-- S Nöldnerplatz/Schlichtallee -->
        <ride busStop="520272363" lines="194:1" intended="pt_bus_194:1.1" depart="1150.00"/> <!-- Michiganseestraße -->
        <walk edges="198585459#7 28191100#0 28191100#1 28191100#2 32838992#1 32838992#0 28073741#1 746979566#0 32838988#1 32838988#2"/>
    </person>
    <person id="ped20" type="ped_pedestrian" depart="18.07">
        <walk edges="430955169 430955161 4689084#3 223288638#0 223288638#1 -150429098#0 -150429098#1 -175574679#1 -175574679#2 -175574679#4 -175574679#5"/>
    </person>
    <person id="ped21" type="ped_pedestrian" depart="18.97">
        <walk edges="-50062452#0 -50062452#1 485793107 -485793108#1 -485793108#0 -172430683 -182390330#1 -182390330#0 -172430685#1 -172430685#0" busStop="-4003905921"/> <!-- Balatonstraße -->
        <ride busStop="5289023576" lines="194:0" intended="pt_bus_194:0.0" depart="278.00"/> <!-- S Ostkreuz -->
        <walk edges="25553598#2 25553598#3 439421755#0 -335239860#0 -60819742#5 -60819742#4 25929648#2 -77501859"/>
    </person>
    <person id="ped22" type="ped_pedestrian" depart="19.87">
        <walk edges="-216981476#0 -216981476#1 -216981476#2 154381211#1 10124901 430955108 10124982#1 396744565 236544358 430955155#0 430955155#1 430955148 430955117" busStop="2445663203"/> <!-- U Lichtenberg -->
        <ride busStop="3933477402" lines="U5:1" intended="pt_subway_U5:1.0" depart="421.00"/> <!-- U Magdalenenstraße -->
        <walk edges="311849674#5 25797873#0 25797873#1 -25797732#0 25797732#1 -25797732#2 -518874770#0 518874770#1 -518874770#1"/>
    </person>
    <person id="ped23" type="ped_pedestrian" depart="20.78">
        <walk edges="-25376552#3 -25376552#4" busStop="1822518522"/> <!-- Libauer Straße -->
        <ride busStop="1679204630" lines="M13:0" intended="pt_tram_M13:0.0" depart="225.00"/> <!-- S+U Frankfurter Allee -->
        <walk edges="545634695#0 6263126#1" busStop="710904931"/> <!-- U Frankfurter Allee -->
        <ride busStop="1784905015" lines="U5:0" intended="pt_subway_U5:0.2" depart="1056.00"/> <!-- U Lichtenberg -->
        <walk edges="430955156#2 430955156#1 430955156#0 430955136 430955179 430955157#1 430955157#0 430955165 172093543 346422752#2 714717384#0 714717384#1 391759631 60769287 232454588#1 232454588#0 -232454575 -441045985 39351128 25771354 -25742191#0 -679059656"/>
    </person>
    <person id="ped24" type="ped_pedestrian" depart="21.68">
        <walk edges="383634464 383634470#1 175574679#2 175574679#1 150429098#1 150429098#0 223288638#1 223288638#0 32446834#1 232454576#1 51824172#1 172093541 430955114#1 430955113 430955130 430955121 430955156#0 430955156#1 430955156#2 430955156#3 430955156#4 430955156#5 430955156#6" busStop="2445663203"/> <!-- U Lichtenberg -->
        <ride busStop="3880774070" lines="U5:1" intended="pt_subway_U5:1.2" depart="1021.00"/> <!-- U Frankfurter Allee -->
        <walk edges="6263126#2 6263126#1 465628881#0 78629912 -194071688#2 154381215#0 154381215#1"/>
    </person>
    <person id="ped25" type="ped_pedestrian" depart="22.58">
        <walk edges="154381284#0 154381254#0 154381254#1 154381254#2 154381254#3 -488814363#1 595824428#2 595824428#1 595906871 595906863#1 595906863#0 595906859 194071690#0 4688802#1 518729376 176050264#1 37226918#1" busStop="710904931"/> <!-- U Frankfurter Allee -->
        <ride busStop="1784905015" lines="U5:0" intended="pt_subway_U5:0.1" depart="756.00"/> <!-- U Lichtenberg -->
        <walk edges="430955156#2 430955156#1 430955156#0 430955121 430955130 430955113 430955114#1 172093541 51824172#1 232454576#1 32446834#1 223288638#0 223288638#1 150429098#0 -4689086#0"/>
    </person>
    <person id="ped26" type="ped_pedestrian" depart="23.49">
        <walk edges="-62170956#1 -4685952#2 -4685952#4 -4685952#5 4685952#6 106277650#0 268561900#0 268561900#1 268561900#2 268561900#3 127538497#0 127538497#3 127538497#4 496503270 496503272 470766231#1 470766231#2 567604389 154381227#0 687842886#0 687842886#1"/>
    </person>
    <person id="ped27" type="ped_pedestrian" depart="24.39">
        <walk edges="385954150 394669706#0 394669706#1" busStop="4439191866"/> <!-- S Ostkreuz -->
        <ride busStop="1117011942" lines="S5:1" intended="pt_train_S5:1.0" depart="273.00"/> <!-- S Lichtenberg -->
        <walk edges="430955176#0 430955163#0 235969679 430955156#1 430955156#2 430955156#3 430955156#4 430955156#5 430955156#6" busStop="2445663203"/> <!-- U Lichtenberg -->
        <ride busStop="3933477402" lines="U5:1" intended="pt_subway_U5:1.1" depart="721.00"/> <!-- U Magdalenenstraße -->
        <walk edges="236544372 390232834 236544367#1 236544359 317769278 105963771#0 122048056#1 100774712#0 100774712#1 100774712#2 100774712#3 100774712#4 100774712#5 -25585757#3 25585757#2 -367868427#4 -367868427#3 367868427#2 367868427#1"/>
    </person>
    <person id="ped29" type="ped_pedestrian" depart="26.20">
        <walk edges="-395808400#0 -202112398#2 -202112398#5 310172801#0 311849674#6 311849674#5 311849674#4 291438996#0 291438996#1" busStop="3933477400"/> <!-- U Magdalenenstraße -->
        <ride busStop="3926745600" lines="U5:0" intended="pt_subway_U5:0.0" depart="540.00"/> <!-- U Friedrichsfelde -->
        <walk edges="-4689055#11 -4689055#9 -4689055#8 -4689055#7 -4689055#6 -4689055#5 4689055#4 4689055#3 25760211#1 25760211#0 157597999#3 157597999#2"/>
    </person>
    <person id="ped30" type="ped_pedestrian" depart="27.10">
        <walk edges="824274178#1 453379903#1 453379903#3 106277831#0 106277831#1 106277831#2 106277831#3 32388487#2 32388487#1 32388487#0 32388481#0 32388480#0 -155605333#2 -155605333#3 -155605333#4 -155605333#5 -155605333#6 -35552254#0 35552254#1" busStop="3870914559"/> <!-- Persiusstraße -->
        <ride busStop="4370346533" lines="347:0" intended="pt_bus_347:0.0" depart="586.00"/> <!-- S Ostkreuz -->
        <walk edges="384136808#2 160069989#3 160069989#2 385558110#4 385558110#3 645476445 645476446 394669710#1 394669705#1 394669709#0" busStop="4439191866"/> <!-- S Ostkreuz -->
        <ride busStop="1117011942" lines="S7:1" intended="pt_train_S7:1.1" depart="945.00"/> <!-- S Lichtenberg -->
        <walk edges="430955176#0 430955163#0 235969679 430955156#0 430955136 430955179 430955157#1 430955157#0 430955165 172093543 346422752#2 346422752#3 -470350075#2 -470350075#1 -470350075#0 25797635#3" busStop="364793296"/> <!-- Irenenstraße -->
        <ride busStop="364793286" lines="108:0" intended="pt_bus_108:0.2" depart="1523.00"/> <!-- Einbecker Straße/Rosenfelder Straße -->
        <walk edges="25463298#3 617802910 373664972#0 373664972#1 69720502#9 69720502#8 69720502#7 69720502#6 69720502#5 -385402828#0 385402828#1"/>
    </person>
    <person id="ped31" type="ped_pedestrian" depart="28.00">
        <walk edges="316735234#5 316735234#4 316735234#3 316735910 -58177945#1 -818875883#0 -818875883#1 -818875883#2 -818875883#3 58182826#1 -58182826#0 58182817 166622530 166622533#0 166622533#1 166622531 166622532 175573808#1 175573808#0" busStop="1117011753"/> <!-- S Nöldnerplatz -->
        <ride busStop="1117011942" lines="S5:1" intended="pt_train_S5:1.1" depart="1011.00"/> <!-- S Lichtenberg -->
        <walk edges="430955176#0 430955163#0 235969679 430955156#1 430955156#2 430955156#3 430955156#4 430955156#5 430955156#6 430955175#0 430955124 422975278 430955134 10124982#2 10124982#1 430955108 10124901 154381211#1 -216981476#2 -216981476#1 -216981476#0 -822848138 822848139 -41556728#2 -41556728#1 -41556728#0 41556694#1"/>
    </person>
    <person id="ped32" type="ped_pedestrian" depart="28.91">
        <walk edges="565909526 69724692#1 69724692#0 69724367#2 -30691726#1 30691726#0 175573808#1 175573808#0" busStop="1117011753"/> <!-- S Nöldnerplatz -->
        <ride busStop="1117011942" lines="S5:1" intended="pt_train_S5:1.0" depart="411.00"/> <!-- S Lichtenberg -->
        <walk edges="430955176#0 430955163#0 235969679 430955156#1 430955156#2 430955156#3 430955156#4 430955156#5 430955156#6" busStop="2445663203"/> <!-- U Lichtenberg -->
        <ride busStop="3933477402" lines="U5:1" intended="pt_subway_U5:1.1" depart="721.00"/> <!-- U Magdalenenstraße -->
        <walk edges="311849674#5 311849674#6 310172801#0 122048055#1 122048055#3 473812025 473812022 473812023 473812027#3 473812027#2 473812026"/>
    </person>
    <person id="ped33" type="ped_pedestrian" depart="29.81">
        <walk edges="-510236968 -510236976#6 -510236976#5 510236976#4 -510236976#3 -510236976#2 -510236976#1 -510236976#0 -318323325#0 -42157877#10 -42157877#11 -223184048#2 311849673#1 311849674#1 311849674#2 311849674#3 311849674#4 311849674#5" busStop="3933477402"/> <!-- U Magdalenenstraße -->
        <ride busStop="3880774070" lines="U5:1" intended="pt_subway_U5:1.1" depart="806.00"/> <!-- U Frankfurter Allee -->
        <walk edges="56950463#1 56950463#0 56949793 122676016#1 122676016#0" busStop="316787417"/> <!-- S Frankfurter Allee -->
        <ride busStop="1797163098" lines="S85:3" intended="pt_train_S85:3.1" depart="1159.00"/> <!-- S Ostkreuz -->
        <walk edges="160069989#1 160069989#2 25553598#2" busStop="5289023576"/> <!-- S Ostkreuz -->
        <ride busStop="-4574766498" lines="194:0" intended="pt_bus_194:0.1" depart="1504.00"/> <!-- Markgrafendamm -->
        <walk edges="-155605329#0 -155605329#1 432763465#1 432763465#0 35552254#7 35552254#6 35552254#5 35552254#4 35552254#3 35552254#2 35552254#1 -35552254#0 -155605333#6 -155605333#5 -155605333#4 -155605333#3 -155605333#2"/>
    </person>
    <person id="ped34" type="ped_pedestrian" depart="30.71">
        <walk edges="106886288#0 106886288#1 97133107#2 97133107#1 97133107#0 665689273#3 665689273#2 -665689273#1 129413464 490912372 562746988#0 443786895 4688601#1 60815654#1" busStop="4439191866"/> <!-- S Ostkreuz -->
        <ride busStop="1117011942" lines="S5:1" intended="pt_train_S5:1.1" depart="873.00"/> <!-- S Lichtenberg -->
        <walk edges="430955176#0 430955163#0 235969679 430955156#1 430955156#2 430955156#3 430955156#4 430955156#5 430955156#6 430955175#0 430955124 422975278 430955134 10124982#2 10124982#1 430955108 10124901 154381211#0 199578957 25760738#1 25760738#0 404278846 -10864589 -31302266 229061362#0 -6229430#1"/>
    </person>
    <person id="ped35" type="ped_pedestrian" depart="31.62">
        <walk edges="-4689087#5 -4689055#0 -385402830#1 -385402830#0 -4689086#3 -4689086#2 -4689086#1 -150429098#0 223288638#1 223288638#0 460482400 391759629 41565083 41565191 430955118 430955135 430955153 430955143 430955178#0 437736313 422980018 422980017" busStop="320929401"/> <!-- S Lichtenberg -->
        <ride busStop="1117011896" lines="S5:0" intended="pt_train_S5:0.1" depart="813.00"/> <!-- S Nöldnerplatz -->
        <walk edges="510998902 43596970 166622533#1 166622531 166622532 -464685678 -464685679#3 154615364#0 69724420#2 69724420#1"/>
    </person>
    <person id="ped36" type="ped_pedestrian" depart="32.52">
        <walk edges="60769279 37226970 310172807#4" busStop="2445663203"/> <!-- U Lichtenberg -->
        <ride busStop="3880774070" lines="U5:1" intended="pt_subway_U5:1.0" depart="421.00"/> <!-- U Frankfurter Allee -->
        <walk edges="56950463#1 56950463#0 56949793 122676016#1 122676016#0" busStop="316787417"/> <!-- S Frankfurter Allee -->
        <ride busStop="1797163098" lines="S41:0" intended="pt_train_S41:0.3" depart="978.00"/> <!-- S Ostkreuz -->
        <walk edges="160069989#1 160069989#2 25553598#2 25553598#3 439421755#0 -335239860#0 -60819742#5 -60819742#4 -60819742#3 -33561458#2 -335239961#0 -335239961#1 33561452 -432763465#0 -35552254#7" busStop="-3870914554"/> <!-- Markgrafendamm -->
        <ride busStop="-3870914557" lines="347:1" intended="pt_bus_347:1.2" depart="1673.00"/> <!-- Osthafen -->
        <walk edges="-453379903#3 -106277831#0 106277831#1 106277831#2"/>
    </person>
    <person id="ped37" type="ped_pedestrian" depart="33.42">
        <walk edges="391759634 430955138 430955180#1 430955180#0 430955135 430955153 430955143 430955178#0 437736313 422980018 422980017" busStop="320929401"/> <!-- S Lichtenberg -->
        <ride busStop="1117011896" lines="S5:0" intended="pt_train_S5:0.0" depart="213.00"/> <!-- S Nöldnerplatz -->
        <walk edges="175573808#1 175573808#0 -383626941#1 -383626941#2 -383626941#3 -383626941#4 -383626941#5 175573818#0 175573818#1"/>
    </person>
    <person id="ped38" type="ped_pedestrian" depart="34.33">
        <walk edges="645960421 -4689054#13 -4689054#12 34246432#2 110256234 110256235#2 110256235#3 110256238 -175574447#0 175574446 4689036#5 4689036#3 4689036#2 4689036#1 175574445#5 175574444#0 132105451#1 627352262#2 627352262#1 627352262#0 36090096 175569521#1 223307728#0 -223307728#1 223307728#2 -40706909 40706908#1 223307730#1"/>
    </person>
    <person id="ped39" type="ped_pedestrian" depart="35.23">
        <walk edges="-611138195 611138195 714748342#0 714748342#1 -438607986#0 -39351127#2 -39351127#1 -785790737#0 -120311789#0 -120311789#2" busStop="-4003905957"/> <!-- Wönnichstraße -->
        <ride busStop="-3983685979" lines="194:0" intended="pt_bus_194:0.0" depart="497.00"/> <!-- S Rummelsburg -->
        <walk edges="-198589917 -360153809#0 385250928#2 385250928#1 625764183 625737814 385250929" busStop="1106283718"/> <!-- S Rummelsburg -->
        <ride busStop="4095970537" lines="S3:3" intended="pt_train_S3:3.0" depart="876.00"/> <!-- S Ostkreuz -->
        <walk edges="432785730 511790333#1 511790333#0 432785724 686694130#0 523796334#0 154381231#0 -594048997#4 -594048997#2"/>
    </person>
    <person id="ped40" type="ped_pedestrian" depart="36.13">
        <walk edges="31739134 311849674#4 291438996#0 291438996#1 122048056#3 370609801 255373842 255373844 198597176 499658100#0 499658100#1 392721532#0" busStop="3933477380"/> <!-- Atzpodienstraße/U Magdalenenstraße -->
        <ride busStop="3983685967" lines="240:1" intended="pt_bus_240:1.0" depart="483.00"/> <!-- Münsterlandplatz -->
        <walk edges="175574452#0 175574447#0 175574447#1 175574447#2 237483989#0 237483989#1 237483989#2 34883298#0 34883298#1 34883298#2 34883298#3 34883298#5 -4689089#0 28191099#1 28191103 610191135 -610191137#0 610191137#1 -610271623#1"/>
    </person>
    <person id="ped41" type="ped_pedestrian" depart="37.04">
        <walk edges="33561458#2 -60819742#2 155605329#1 155605329#0" busStop="262652924"/> <!-- Markgrafendamm -->
        <ride busStop="-3983685978" lines="194:1" intended="pt_bus_194:1.0" depart="244.00"/> <!-- S Rummelsburg -->
        <walk edges="-360153809#0 385250928#2 385250928#1 37333200" busStop="5046353031"/> <!-- S Rummelsburg -->
        <walk edges="26492687#3 523460469#0 625733477 625733471#0 625733482 625733481 622955235#0 625733469#1 625733469#0"/>
    </person>
    <person id="ped42" type="ped_pedestrian" depart="37.94">
        <walk edges="175574451#1 438607986#1 438607986#0 39351127#2 39351127#0 -175571990#0 -120311789#0 -120311789#2" busStop="-4003905957"/> <!-- Wönnichstraße -->
        <ride busStop="-4574766498" lines="194:0" intended="pt_bus_194:0.0" depart="497.00"/> <!-- Markgrafendamm -->
        <walk edges="-155605329#0 -155605329#1 432763465#1 432763465#0 35552254#7 35552254#6 35552254#5 35552254#4 155605272#2 -476011435"/>
    </person>
    <person id="ped43" type="ped_pedestrian" depart="38.84">
        <walk edges="86813083#4 -106982303#1 36991224#2 -453379903#2 453379903#3 106277831#0 106277831#1 106277831#2 106277831#3 106277831#4 106277831#5 106277831#6 -4685952#7 -4685952#5" busStop="-3870914555"/> <!-- Modersohnstraße -->
        <ride busStop="4370346533" lines="347:0" intended="pt_bus_347:0.0" depart="509.00"/> <!-- S Ostkreuz -->
        <walk edges="384136808#2 160069989#3 160069989#2 385558110#4 385558110#3 645476445 645476446 394669710#1 394669705#1 394669709#0" busStop="4439191866"/> <!-- S Ostkreuz -->
        <ride busStop="1117011942" lines="S7:1" intended="pt_train_S7:1.1" depart="945.00"/> <!-- S Lichtenberg -->
        <walk edges="430955176#0 430955163#0 235969679 430955156#1 430955156#2 430955156#3 430955156#4 430955156#5 430955156#6" busStop="2445663203"/> <!-- U Lichtenberg -->
        <ride busStop="3933477402" lines="U5:1" intended="pt_subway_U5:1.4" depart="1621.00"/> <!-- U Magdalenenstraße -->
        <walk edges="311849674#5 25797873#0 25797873#1 -25797732#0 25797732#1 -25797732#2 25797732#3"/>
    </person>
    <person id="ped44" type="ped_pedestrian" depart="39.75">
        <walk edges="-237460095 -237460096#0 237460088 667302887#2 387880227#0" busStop="1841628954"/> <!-- Kosanke-Siedlung -->
        <ride busStop="471493995" lines="21:0" intended="pt_tram_21:0.0" depart="344.00"/> <!-- Boxhagener Straße/Holteistraße -->
        <walk edges="97133107#6 -410953174#1 410953175 727319537#0 727319537#1 -410953173#2 -154381214 -11273359#0 -11273359#1 -175744669#1 -175744669#2 -175744669#3 -175744669#4 -175744669#7"/>
    </person>
    <person id="ped45" type="ped_pedestrian" depart="40.65">
        <walk edges="-25762471#3 -25762471#2 -25762471#0 -383557654#1 -120311789#3 -120311789#2" busStop="-4003905957"/> <!-- Wönnichstraße -->
        <ride busStop="5289023576" lines="194:0" intended="pt_bus_194:0.0" depart="497.00"/> <!-- S Ostkreuz -->
        <walk edges="25553598#2 160069989#2 160069989#1" busStop="3877606472"/> <!-- Berlin Ostkreuz -->
        <walk edges="380542384#1 380091987 394677957#1 385558129#15 385558129#14 385558129#13 385558129#12 385558129#11 385558129#10 380092037#1 380092037#2"/>
    </person>
    <person id="ped46" type="ped_pedestrian" depart="41.55">
        <walk edges="491948905 491948899#6" busStop="3935369910"/> <!-- U Samariterstraße -->
        <ride busStop="710904931" lines="U5:0" intended="pt_subway_U5:0.0" depart="377.00"/> <!-- U Frankfurter Allee -->
        <walk edges="6263126#2" busStop="3880774070"/> <!-- U Frankfurter Allee -->
        <walk edges="56950463#1 56950463#0 56949793 122676016#1 122676016#0" busStop="316787417"/> <!-- S Frankfurter Allee -->
        <ride busStop="1797163098" lines="S41:0" intended="pt_train_S41:0.2" depart="678.00"/> <!-- S Ostkreuz -->