<?xml version="1.0" encoding="UTF-8"?>

<!-- generated on 09/09/20 01:00:37 by Eclipse SUMO polyconvert Version 1.6.0
<configuration xmlns:xsi="http://www.w3.org/2001/XMLSchema-instance" xsi:noNamespaceSchemaLocation="http://sumo.dlr.de/xsd/polyconvertConfiguration.xsd">

    <input>
        <net-file value="osm.net.xml"/>
        <type-file value="osmPolyconvertRail.typ.xml"/>
    </input>

    <output>
        <output-file value="rail.poly.xml"/>
    </output>

</configuration>
-->

<additional xmlns:xsi="http://www.w3.org/2001/XMLSchema-instance" xsi:noNamespaceSchemaLocation="http://sumo.dlr.de/xsd/additional_file.xsd">
    <location netOffset="-394312.13,-5816262.86" convBoundary="0.00,0.00,5344.95,3756.54" origBoundary="13.442773,52.486957,13.521797,52.523586" projParameter="+proj=utm +zone=33 +ellps=WGS84 +datum=WGS84 +units=m +no_defs"/>

</additional>
