<?xml version="1.0" encoding="UTF-8"?>
<!-- generated on 2020-09-08 21:24:39.143500 by osmWebWizard.py v1_6_0+0003-190709904e
  options: 
-->
<routes xmlns:xsi="http://www.w3.org/2001/XMLSchema-instance" xsi:noNamespaceSchemaLocation="http://sumo.dlr.de/xsd/routes_file.xsd">
    <vType id="pt_bus" vClass="bus"/>
    <vType id="pt_tram" vClass="tram"/>
    <vType id="pt_train" vClass="rail"/>
    <vType id="pt_subway" vClass="rail_urban"/>
    <vType id="pt_light_rail" vClass="rail_urban"/>
    <vType id="pt_monorail" vClass="rail"/>
    <vType id="pt_trolleybus" vClass="bus"/>
    <vType id="pt_aerialway" vClass="bus"/>
    <vType id="pt_ferry" vClass="ship"/>
    <trip id="0_train_RB24:0" type="pt_train" depart="3" departLane="best" from="154456585" to="4741205#1">
        <stop busStop="1342275460" duration="30"/>
    </trip>
    <trip id="1_train_RB24:1" type="pt_train" depart="15" departLane="best" from="375331598" to="200143176">
        <stop busStop="3936632578" duration="30"/>
    </trip>
    <trip id="2_train_S41:0" type="pt_train" depart="15" departLane="best" from="375331609" to="224705867">
        <stop busStop="316787417" duration="30"/>
        <stop busStop="1797163098" duration="30"/>
    </trip>
    <trip id="3_train_S42:0" type="pt_train" depart="17" departLane="best" from="200143175" to="8096476">
        <stop busStop="1797163101" duration="30"/>
        <stop busStop="21385742" duration="30"/>
    </trip>
    <trip id="4_train_RE2:0" type="pt_train" depart="19" departLane="best" from="290102784" to="290102784">
        <stop busStop="5284961125" duration="30"/>
    </trip>
    <trip id="5_train_RB12:0" type="pt_train" depart="27" departLane="best" from="390513525" to="233865128#1">
        <stop busStop="1342275460" duration="30"/>
        <stop busStop="2440453081" duration="30"/>
    </trip>
    <trip id="6_train_RE1:0" type="pt_train" depart="47" departLane="best" from="385669853" to="385669853">
        <stop busStop="3877606472" duration="30"/>
    </trip>
    <trip id="7_train_RE1:1" type="pt_train" depart="52" departLane="best" from="290102784" to="290102784">
        <stop busStop="5284961125" duration="30"/>
    </trip>
    <trip id="10_train_S5:0" type="pt_train" depart="60" departLane="best" from="29183195#0" to="654481303">
        <stop busStop="320929401" duration="30"/>
        <stop busStop="1117011896" duration="30"/>
        <stop busStop="5316085166" duration="30"/>
        <stop busStop="6127606967" duration="30"/>
    </trip>
    <trip id="11_train_S5:1" type="pt_train" depart="93" departLane="best" from="654481299" to="24565640#2">
        <stop busStop="3714150030" duration="30"/>
        <stop busStop="4439191866" duration="30"/>
        <stop busStop="1117011753" duration="30"/>
        <stop busStop="1117011942" duration="30"/>
    </trip>
    <trip id="12_train_S7:0" type="pt_train" depart="98" departLane="best" from="29183195#0" to="654481303">
        <stop busStop="320929401" duration="30"/>
        <stop busStop="1117011896" duration="30"/>
        <stop busStop="5316085166" duration="30"/>
        <stop busStop="6127606967" duration="30"/>
    </trip>
    <trip id="13_train_S7:1" type="pt_train" depart="102" departLane="best" from="654481299" to="24565640#2">
        <stop busStop="3714150030" duration="30"/>
        <stop busStop="4439191866" duration="30"/>
        <stop busStop="1117011753" duration="30"/>
        <stop busStop="1117011942" duration="30"/>
    </trip>
    <trip id="14_tram_16:0" type="pt_tram" depart="119" departLane="best" from="93220950#0" to="389705418#1">
        <stop busStop="288268520" duration="30"/>
        <stop busStop="386791058" duration="30"/>
    </trip>
    <trip id="15_tram_16:1" type="pt_tram" depart="125" departLane="best" from="167791953#0" to="155531564#2">
        <stop busStop="386790206" duration="30"/>
        <stop busStop="1679204630" duration="30"/>
    </trip>
    <trip id="16_tram_M10:0" type="pt_tram" depart="126" departLane="best" from="25162681#0" to="25376554#4">
        <stop busStop="469462973" duration="30"/>
        <stop busStop="631457501" duration="30"/>
    </trip>
    <trip id="17_tram_M10:1" type="pt_tram" depart="131" departLane="best" from="49677303#0" to="93861042#5">
        <stop busStop="631457502" duration="30"/>
        <stop busStop="469466577" duration="30"/>
        <stop busStop="30734503" duration="30"/>
    </trip>
    <trip id="18_tram_M13:0" type="pt_tram" depart="132" departLane="best" from="171197667" to="155531564#2">
        <stop busStop="469466577" duration="30"/>
        <stop busStop="1822518522" duration="30"/>
        <stop busStop="1137469153" duration="30"/>
        <stop busStop="471493996" duration="30"/>
        <stop busStop="386790206" duration="30"/>
        <stop busStop="1679204630" duration="30"/>
    </trip>
    <trip id="19_tram_M13:1" type="pt_tram" depart="133" departLane="best" from="93220950#0" to="25376554#4">
        <stop busStop="288268520" duration="30"/>
        <stop busStop="386791058" duration="30"/>
        <stop busStop="1840716906" duration="30"/>
        <stop busStop="1822518541" duration="30"/>
        <stop busStop="1822518527" duration="30"/>
        <stop busStop="245548434" duration="30"/>
        <stop busStop="631457501" duration="30"/>
    </trip>
    <trip id="20_tram_21:0" type="pt_tram" depart="136" departLane="best" from="173318266#0" to="170782996#1">
        <stop busStop="1891963680" duration="30"/>
        <stop busStop="1896387646" duration="30"/>
        <stop busStop="1841628954" duration="30"/>
        <stop busStop="1841628955" duration="30"/>
        <stop busStop="-3910983107" duration="30"/>
        <stop busStop="361482764" duration="30"/>
        <stop busStop="471493995" duration="30"/>
        <stop busStop="431281298" duration="30"/>
        <stop busStop="2479426340" duration="30"/>
    </trip>
    <trip id="21_tram_21:1" type="pt_tram" depart="137" departLane="best" from="388184246" to="93861039#1">
        <stop busStop="1864614599" duration="30"/>
        <stop busStop="96536918" duration="30"/>
        <stop busStop="1864614582" duration="30"/>
        <stop busStop="1864614587" duration="30"/>
    </trip>
    <trip id="22_tram_37:0" type="pt_tram" depart="139" departLane="best" from="104765119#0" to="104765119#1">
        <stop busStop="96536918" duration="30"/>
        <stop busStop="1864614582" duration="30"/>
        <stop busStop="1864614587" duration="30"/>
    </trip>
    <trip id="23_tram_37:1" type="pt_tram" depart="160" departLane="best" from="618580311#0" to="388184246">
        <stop busStop="3667255637" duration="30"/>
        <stop busStop="1864614733" duration="30"/>
        <stop busStop="1865263813" duration="30"/>
        <stop busStop="1864614599" duration="30"/>
    </trip>
    <trip id="24_train_S75:0" type="pt_train" depart="160" departLane="best" from="654481301" to="24565640#2">
        <stop busStop="5032009260" duration="30"/>
        <stop busStop="4095970528" duration="30"/>
        <stop busStop="1117011753" duration="30"/>
        <stop busStop="1117011942" duration="30"/>
    </trip>
    <trip id="25_train_S75:1" type="pt_train" depart="165" departLane="best" from="29183195#0" to="654481297">
        <stop busStop="320929401" duration="30"/>
        <stop busStop="1117011896" duration="30"/>
        <stop busStop="4095970537" duration="30"/>
        <stop busStop="6132735787" duration="30"/>
    </trip>
    <trip id="26_bus_194:0" type="pt_bus" depart="166" departLane="best" from="-184453366#4" to="46845337">
        <stop busStop="-352823731" duration="30"/>
        <stop busStop="-4003905921" duration="30"/>
        <stop busStop="-538464925" duration="30"/>
        <stop busStop="-4003905935" duration="30"/>
        <stop busStop="-4003905957" duration="30"/>
        <stop busStop="-4003905946" duration="30"/>
        <stop busStop="-3983685979" duration="30"/>
        <stop busStop="5289023576" duration="30"/>
        <stop busStop="-4574766498" duration="30"/>
    </trip>
    <trip id="27_bus_194:1" type="pt_bus" depart="173" departLane="best" from="195387453#0" to="184453366#4">
        <stop busStop="262652924" duration="30"/>
        <stop busStop="4370346533" duration="30"/>
        <stop busStop="-3983685978" duration="30"/>
        <stop busStop="4003905947" duration="30"/>
        <stop busStop="4003905958" duration="30"/>
        <stop busStop="520272363" duration="30"/>
        <stop busStop="4003905951" duration="30"/>
        <stop busStop="4003905920" duration="30"/>
        <stop busStop="4003905948" duration="30"/>
    </trip>
    <trip id="32_subway_U5:0" type="pt_subway" depart="222" departLane="best" from="381471709" to="172093540">
        <stop busStop="3876349057" duration="30"/>
        <stop busStop="3935369910" duration="30"/>
        <stop busStop="710904931" duration="30"/>
        <stop busStop="3933477400" duration="30"/>
        <stop busStop="1784905015" duration="30"/>
        <stop busStop="3926745600" duration="30"/>
    </trip>
    <trip id="33_subway_U5:1" type="pt_subway" depart="227" departLane="best" from="464757330" to="288200093">
        <stop busStop="3951294989" duration="30"/>
        <stop busStop="2445663203" duration="30"/>
        <stop busStop="3933477402" duration="30"/>
        <stop busStop="3880774070" duration="30"/>
        <stop busStop="55189254" duration="30"/>
        <stop busStop="107020135" duration="30"/>
    </trip>
    <trip id="34_bus_108:0" type="pt_bus" depart="227" departLane="best" from="450639253" to="4689026#5">
        <stop busStop="3983685973" duration="30"/>
        <stop busStop="364793296" duration="30"/>
        <stop busStop="364793286" duration="30"/>
    </trip>
    <trip id="35_bus_108:1" type="pt_bus" depart="253" departLane="best" from="32644395#0" to="450639253">
        <stop busStop="3933537015" duration="30"/>
        <stop busStop="3933537016" duration="30"/>
        <stop busStop="3983685973" duration="30"/>
    </trip>
    <trip id="36_train_S8:0" type="pt_train" depart="303" departLane="best" from="375331609" to="200143181">
        <stop busStop="316787417" duration="30"/>
        <stop busStop="1797163098" duration="30"/>
    </trip>
    <trip id="37_train_S8:1" type="pt_train" depart="321" departLane="best" from="223374013" to="8096476">
        <stop busStop="1797163101" duration="30"/>
        <stop busStop="21385742" duration="30"/>
    </trip>
    <trip id="38_bus_347:0" type="pt_bus" depart="326" departLane="best" from="36991224#1" to="645012958#1">
        <stop busStop="3870914558" duration="30"/>
        <stop busStop="-3870914555" duration="30"/>
        <stop busStop="3870914559" duration="30"/>
        <stop busStop="3870914553" duration="30"/>
        <stop busStop="4370346533" duration="30"/>
    </trip>
    <trip id="39_bus_347:1" type="pt_bus" depart="331" departLane="best" from="-665689267#3" to="824274199#0">
        <stop busStop="262652924" duration="30"/>
        <stop busStop="-3870914554" duration="30"/>
        <stop busStop="-3870914560" duration="30"/>
        <stop busStop="663216255" duration="30"/>
        <stop busStop="-3870914557" duration="30"/>
        <stop busStop="3870914565" duration="30"/>
    </trip>
    <trip id="40_bus_256:0" type="pt_bus" depart="334" departLane="best" from="464609372" to="464609372">
        <stop busStop="506002095" duration="30"/>
    </trip>
    <trip id="42_bus_240:0" type="pt_bus" depart="353" departLane="best" from="-11923627#6" to="7624234#2">
        <stop busStop="-3983685960" duration="30"/>
        <stop busStop="-3983685981" duration="30"/>
        <stop busStop="-3983679554" duration="30"/>
        <stop busStop="-2915699919" duration="30"/>
        <stop busStop="-1423996589" duration="30"/>
        <stop busStop="-3910983109" duration="30"/>
        <stop busStop="3910983106" duration="30"/>
        <stop busStop="-3983685978" duration="30"/>
        <stop busStop="4003905947" duration="30"/>
        <stop busStop="-3983685964" duration="30"/>
        <stop busStop="-3983685968" duration="30"/>
        <stop busStop="-3983685965" duration="30"/>
        <stop busStop="-3983685976" duration="30"/>
        <stop busStop="3983685971" duration="30"/>
        <stop busStop="3933537006" duration="30"/>
        <stop busStop="3933477383" duration="30"/>
    </trip>
    <trip id="43_bus_240:1" type="pt_bus" depart="362" departLane="best" from="25771279" to="11923627#6">
        <stop busStop="3933477403" duration="30"/>
        <stop busStop="3933477380" duration="30"/>
        <stop busStop="3933537007" duration="30"/>
        <stop busStop="364793280" duration="30"/>
        <stop busStop="3983685973" duration="30"/>
        <stop busStop="3983685966" duration="30"/>
        <stop busStop="3983685983" duration="30"/>
        <stop busStop="3983685967" duration="30"/>
        <stop busStop="3983685963" duration="30"/>
        <stop busStop="-4003905946" duration="30"/>
        <stop busStop="-3983685979" duration="30"/>
        <stop busStop="3910983108" duration="30"/>
        <stop busStop="3910983110" duration="30"/>
        <stop busStop="3910983105" duration="30"/>
        <stop busStop="3910272100" duration="30"/>
        <stop busStop="3983679553" duration="30"/>
        <stop busStop="3983685982" duration="30"/>
        <stop busStop="3983685959" duration="30"/>
    </trip>
    <trip id="44_train_S3:0" type="pt_train" depart="365" departLane="best" from="385258471" to="654481303">
        <stop busStop="1106283718" duration="30"/>
        <stop busStop="5316085166" duration="30"/>
        <stop busStop="6127606967" duration="30"/>
    </trip>
    <trip id="45_train_S3:1" type="pt_train" depart="371" departLane="best" from="654481299" to="438360604">
        <stop busStop="3714150030" duration="30"/>
        <stop busStop="4439191866" duration="30"/>
        <stop busStop="5046353031" duration="30"/>
    </trip>
    <trip id="46_train_S9:0" type="pt_train" depart="381" departLane="best" from="224320990" to="654481303">
        <stop busStop="6127606967" duration="30"/>
    </trip>
    <trip id="47_train_S9:1" type="pt_train" depart="383" departLane="best" from="654481299" to="446682248">
        <stop busStop="3714150030" duration="30"/>
    </trip>
    <trip id="50_train_RE2:1" type="pt_train" depart="389" departLane="best" from="385669853" to="385669853">
        <stop busStop="3877606472" duration="30"/>
    </trip>
    <trip id="51_train_S85:0" type="pt_train" depart="406" departLane="best" from="223374013" to="8096476">
        <stop busStop="1797163101" duration="30"/>
        <stop busStop="21385742" duration="30"/>
    </trip>
    <trip id="52_train_S85:1" type="pt_train" depart="410" departLane="best" from="223374013" to="8096476">
        <stop busStop="1797163101" duration="30"/>
        <stop busStop="21385742" duration="30"/>
    </trip>
    <trip id="53_train_S85:2" type="pt_train" depart="418" departLane="best" from="375331609" to="224705867">
        <stop busStop="316787417" duration="30"/>
        <stop busStop="1797163098" duration="30"/>
    </trip>
    <trip id="54_train_S85:3" type="pt_train" depart="422" departLane="best" from="375331609" to="224705867">
        <stop busStop="316787417" duration="30"/>
        <stop busStop="1797163098" duration="30"/>
    </trip>
    <trip id="55_bus_296:0" type="pt_bus" depart="437" departLane="best" from="194818300#0" to="32446831#2">
        <stop busStop="4003905920" duration="30"/>
        <stop busStop="4003905948" duration="30"/>
    </trip>
    <trip id="56_bus_296:1" type="pt_bus" depart="437" departLane="best" from="450639253" to="-4689475#1">
        <stop busStop="3983685973" duration="30"/>
        <stop busStop="364793296" duration="30"/>
        <stop busStop="364793286" duration="30"/>
        <stop busStop="4003905931" duration="30"/>
    </trip>
    <trip id="57_bus_256:1" type="pt_bus" depart="441" departLane="best" from="-25331371#3" to="464609372">
        <stop busStop="-3901927136" duration="30"/>
        <stop busStop="-3901927126" duration="30"/>
        <stop busStop="4004265224" duration="30"/>
        <stop busStop="506002095" duration="30"/>
    </trip>
    <trip id="58_train_RE7:0" type="pt_train" depart="465" departLane="best" from="290102784" to="290102784">
        <stop busStop="5284961125" duration="30"/>
    </trip>
    <trip id="59_train_RB12:1" type="pt_train" depart="483" departLane="best" from="-136651806" to="-446700170">
        <stop busStop="-2440453081" duration="30"/>
        <stop busStop="-5316085165" duration="30"/>
    </trip>
    <trip id="60_train_RB14:0" type="pt_train" depart="484" departLane="best" from="385669853" to="385669853">
        <stop busStop="3877606472" duration="30"/>
    </trip>
    <trip id="61_train_RB25:0" type="pt_train" depart="485" departLane="best" from="253974568" to="-390513525">
        <stop busStop="3936632579" duration="30"/>
        <stop busStop="-1342275460" duration="30"/>
    </trip>
    <trip id="62_train_RB14:1" type="pt_train" depart="497" departLane="best" from="290102784" to="290102784">
        <stop busStop="5284961125" duration="30"/>
    </trip>
    <trip id="63_bus_396:0" type="pt_bus" depart="505" departLane="best" from="194818300#0" to="4689028#1">
        <stop busStop="4003905920" duration="30"/>
        <stop busStop="4003905948" duration="30"/>
    </trip>
    <trip id="64_train_RB26:0" type="pt_train" depart="508" departLane="best" from="-136651806" to="224069948">
        <stop busStop="-2440453081" duration="30"/>
        <stop busStop="1106283807" duration="30"/>
    </trip>
    <trip id="65_train_RB26:1" type="pt_train" depart="517" departLane="best" from="-224069948" to="251750397#2">
        <stop busStop="-1106283807" duration="30"/>
        <stop busStop="2440453083" duration="30"/>
    </trip>
    <trip id="66_train_RB25:1" type="pt_train" depart="535" departLane="best" from="446700170" to="251750397#2">
        <stop busStop="5316085165" duration="30"/>
        <stop busStop="2440453083" duration="30"/>
    </trip>
    <trip id="67_bus_396:1" type="pt_bus" depart="561" departLane="best" from="464685678" to="-4689475#1">
        <stop busStop="4003905945" duration="30"/>
        <stop busStop="4003905947" duration="30"/>
        <stop busStop="4003905958" duration="30"/>
        <stop busStop="4003905929" duration="30"/>
        <stop busStop="4003905924" duration="30"/>
    </trip>
    <trip id="68_train_RE7:1" type="pt_train" depart="574" departLane="best" from="385669853" to="385669853">
        <stop busStop="3877606472" duration="30"/>
    </trip>
    <trip id="69_train_S3:2" type="pt_train" depart="583" departLane="best" from="654481301" to="438360604">
        <stop busStop="5032009260" duration="30"/>
        <stop busStop="4439191866" duration="30"/>
        <stop busStop="5046353031" duration="30"/>
    </trip>
    <trip id="70_train_S3:3" type="pt_train" depart="593" departLane="best" from="385258471" to="654481297">
        <stop busStop="1106283718" duration="30"/>
        <stop busStop="4095970537" duration="30"/>
        <stop busStop="6132735787" duration="30"/>
    </trip>
</routes>
